<?xml version="1.0" encoding="UTF-8"?>

<!-- generated on 2026-04-11 15:18:12.085489 by Eclipse SUMO randomTrips.py v1_25_0+0000-ac6c5a6752d
<configuration>
    <net-file value="mh2gs.net.xml"/>
    <output-trip-file value="mh2gs.trips.xml"/>
    <end value="500.0"/>
</configuration>
-->

<routes xmlns:xsi="http://www.w3.org/2001/XMLSchema-instance" xsi:noNamespaceSchemaLocation="http://sumo.dlr.de/xsd/routes_file.xsd">
    <trip id="0" depart="0.00" from="242046820#2" to="-1242256464#1"/>
    <trip id="1" depart="1.00" from="-4481678#0" to="-325227908#0"/>
    <trip id="2" depart="2.00" from="345602200" to="26292721#3"/>
    <trip id="3" depart="3.00" from="-9027682" to="-1351116389"/>
    <trip id="4" depart="4.00" from="-1269192611" to="-274469882#0"/>
    <trip id="5" depart="5.00" from="-31015708#2" to="204348401#0"/>
    <trip id="6" depart="6.00" from="54244431#1" to="-1058240753"/>
    <trip id="7" depart="7.00" from="534024692#3" to="27292992#1"/>
    <trip id="8" depart="8.00" from="-20200047#4" to="-202053019#0"/>
    <trip id="9" depart="9.00" from="534087835#4" to="313842644"/>
    <trip id="10" depart="10.00" from="-827404286#1" to="18016833#0"/>
    <trip id="11" depart="11.00" from="623643712" to="23197109#0"/>
    <trip id="12" depart="12.00" from="30078099" to="-1432629091#0"/>
    <trip id="13" depart="13.00" from="-332579417#0" to="-534022322#1"/>
    <trip id="14" depart="14.00" from="-8179323#9" to="-30728820#1"/>
    <trip id="15" depart="15.00" from="-43585222#6" to="901462433"/>
    <trip id="16" depart="16.00" from="2430956#2" to="23167685#1"/>
    <trip id="17" depart="17.00" from="951970806" to="2427982#1"/>
    <trip id="18" depart="18.00" from="18017184#1" to="2660144#1"/>
    <trip id="19" depart="19.00" from="68501768#1" to="4370466#1"/>
    <trip id="20" depart="20.00" from="-30728430#0" to="9027185#0"/>
    <trip id="21" depart="21.00" from="810540971" to="-617094407#2"/>
    <trip id="22" depart="22.00" from="24756033#5" to="-8402503#0"/>
    <trip id="23" depart="23.00" from="8402487#1" to="-951591414"/>
    <trip id="24" depart="24.00" from="18942165#1" to="-43585225#0"/>
    <trip id="25" depart="25.00" from="20200279#1" to="837611123#0"/>
    <trip id="26" depart="26.00" from="-8402498#2" to="-31015857#1"/>
    <trip id="27" depart="27.00" from="991376782" to="1351116389"/>
    <trip id="28" depart="28.00" from="-20199976#4" to="-14351492#1"/>
    <trip id="29" depart="29.00" from="-227851377" to="237549507"/>
    <trip id="30" depart="30.00" from="496179184" to="-9048634#1"/>
    <trip id="31" depart="31.00" from="-18015691#0" to="-8390305#0"/>
    <trip id="32" depart="32.00" from="951472855#0" to="772274939"/>
    <trip id="33" depart="33.00" from="-43585222#6" to="2428027#0"/>
    <trip id="34" depart="34.00" from="-230242294#1" to="-948576921"/>
    <trip id="35" depart="35.00" from="-951591384" to="94193337#2"/>
    <trip id="36" depart="36.00" from="782734819#0" to="-4370466#1"/>
    <trip id="37" depart="37.00" from="1186355843#1" to="-26292721#0"/>
    <trip id="38" depart="38.00" from="8402484#0" to="7742071#3"/>
    <trip id="39" depart="39.00" from="23167685#0" to="-2430956#2"/>
    <trip id="40" depart="40.00" from="4481676#4" to="14351598#0"/>
    <trip id="41" depart="41.00" from="-1004928088" to="-68501768#1"/>
    <trip id="42" depart="42.00" from="-1141851564#1" to="878794039#0"/>
    <trip id="43" depart="43.00" from="8117338#1" to="623643717#0"/>
    <trip id="44" depart="44.00" from="-582716867#0" to="-163721162#0"/>
    <trip id="45" depart="45.00" from="8117333#3" to="9048522#1"/>
    <trip id="46" depart="46.00" from="-199675656#7" to="1070356431"/>
    <trip id="47" depart="47.00" from="4049126#3" to="-23279424#3"/>
    <trip id="48" depart="48.00" from="-9048522#2" to="-30733077#3"/>
    <trip id="49" depart="49.00" from="-27474073#3" to="-598147041#6"/>
    <trip id="50" depart="50.00" from="957229310" to="246019110#3"/>
    <trip id="51" depart="51.00" from="-948576918" to="1363897073"/>
    <trip id="52" depart="52.00" from="-23180919" to="-332579417#1"/>
    <trip id="53" depart="53.00" from="-34063830#0" to="-311561500#0"/>
    <trip id="54" depart="54.00" from="-188477695" to="2415176#3"/>
    <trip id="55" depart="55.00" from="-30733077#2" to="-23430109"/>
    <trip id="56" depart="56.00" from="534087835#5" to="-27268487"/>
    <trip id="57" depart="57.00" from="-20201506" to="-948576911"/>
    <trip id="58" depart="58.00" from="951591407#0" to="-202053019#7"/>
    <trip id="59" depart="59.00" from="-870987726" to="-77103500"/>
    <trip id="60" depart="60.00" from="-395464552#4" to="870987728#2"/>
    <trip id="61" depart="61.00" from="-948576932" to="7742056"/>
    <trip id="62" depart="62.00" from="16776906#2" to="-1442484058"/>
    <trip id="63" depart="63.00" from="697895745#1" to="-2558927#4"/>
    <trip id="64" depart="64.00" from="-866431903" to="-163721162#2"/>
    <trip id="65" depart="65.00" from="-951591389" to="-9048634#4"/>
    <trip id="66" depart="66.00" from="18016833#1" to="30733077#4"/>
    <trip id="67" depart="67.00" from="146535600#5" to="381871425#0"/>
    <trip id="68" depart="68.00" from="-16297152#3" to="202052944#0"/>
    <trip id="69" depart="69.00" from="-243398492#1" to="948576914"/>
    <trip id="70" depart="70.00" from="209694797#2" to="26292496#1"/>
    <trip id="71" depart="71.00" from="-349861792#2" to="-23180984#2"/>
    <trip id="72" depart="72.00" from="8199521#4" to="-395464553#1"/>
    <trip id="73" depart="73.00" from="209694797#0" to="23197109#3"/>
    <trip id="74" depart="74.00" from="1370992073" to="901462423#1"/>
    <trip id="75" depart="75.00" from="-30476110" to="30733075#0"/>
    <trip id="76" depart="76.00" from="25654782#5" to="-564174522#3"/>
    <trip id="77" depart="77.00" from="-19209661#0" to="-951591412"/>
    <trip id="78" depart="78.00" from="-19209661#2" to="-31015699#0"/>
    <trip id="79" depart="79.00" from="-43585219#1" to="901443607"/>
    <trip id="80" depart="80.00" from="-8179323#8" to="-246803972#1"/>
    <trip id="81" depart="81.00" from="652084516#0" to="30193003#2"/>
    <trip id="82" depart="82.00" from="23180923" to="951591412"/>
    <trip id="83" depart="83.00" from="582716862" to="-564174522#1"/>
    <trip id="84" depart="84.00" from="-236840721#0" to="-23167685#0"/>
    <trip id="85" depart="85.00" from="-4481674#2" to="230547771"/>
    <trip id="86" depart="86.00" from="30733075#1" to="-30484527"/>
    <trip id="87" depart="87.00" from="1070356427" to="8402455#0"/>
    <trip id="88" depart="88.00" from="-9048522#3" to="-47009149"/>
    <trip id="89" depart="89.00" from="-1028559513#0" to="4357263#2"/>
    <trip id="90" depart="90.00" from="36719933#6" to="18016742"/>
    <trip id="91" depart="91.00" from="-197195590#0" to="8117718#0"/>
    <trip id="92" depart="92.00" from="8390300#0" to="16776906#1"/>
    <trip id="93" depart="93.00" from="652084518#1" to="20200279#1"/>
    <trip id="94" depart="94.00" from="-24239576#4" to="-23279424#0"/>
    <trip id="95" depart="95.00" from="51175590" to="772274938"/>
    <trip id="96" depart="96.00" from="-395464552#3" to="-209694797#1"/>
    <trip id="97" depart="97.00" from="4481678#1" to="8173114#0"/>
    <trip id="98" depart="98.00" from="-878794029#0" to="232717964#3"/>
    <trip id="99" depart="99.00" from="7742064#0" to="951472866"/>
    <trip id="100" depart="100.00" from="550988604#1" to="8117377#2"/>
    <trip id="101" depart="101.00" from="-1242256464#0" to="345602199#1"/>
    <trip id="102" depart="102.00" from="534022321" to="7742060#3"/>
    <trip id="103" depart="103.00" from="550988604#1" to="-4481674#2"/>
    <trip id="104" depart="104.00" from="779724935#2" to="766176980#3"/>
    <trip id="105" depart="105.00" from="-31015857#1" to="570393675"/>
    <trip id="106" depart="106.00" from="-951591406" to="-586978024#1"/>
    <trip id="107" depart="107.00" from="51175588#1" to="-345602197#2"/>
    <trip id="108" depart="108.00" from="-676195905#1" to="7742060#3"/>
    <trip id="109" depart="109.00" from="948576932" to="-471138772#0"/>
    <trip id="110" depart="110.00" from="2425499" to="-870987729#1"/>
    <trip id="111" depart="111.00" from="951591394#0" to="146535600#0"/>
    <trip id="112" depart="112.00" from="901462456" to="-23167685#0"/>
    <trip id="113" depart="113.00" from="951472849" to="-26292721#0"/>
    <trip id="114" depart="114.00" from="948576920" to="-4370468#0"/>
    <trip id="115" depart="115.00" from="-227832674" to="-948576920"/>
    <trip id="116" depart="116.00" from="311561503#0" to="-617094407#0"/>
    <trip id="117" depart="117.00" from="230547774#2" to="1351116393"/>
    <trip id="118" depart="118.00" from="-400898261#1" to="30691382#0"/>
    <trip id="119" depart="119.00" from="-8117377#4" to="-185502274#2"/>
    <trip id="120" depart="120.00" from="-598147041#1" to="686204226"/>
    <trip id="121" depart="121.00" from="31015639" to="-564174522#4"/>
    <trip id="122" depart="122.00" from="-586978024#0" to="-901462421#1"/>
    <trip id="123" depart="123.00" from="-870987725#1" to="-538314349#3"/>
    <trip id="124" depart="124.00" from="901462460#2" to="26292721#5"/>
    <trip id="125" depart="125.00" from="8390296" to="23182853"/>
    <trip id="126" depart="126.00" from="-54244431#1" to="176022356#1"/>
    <trip id="127" depart="127.00" from="-1004928088" to="-52565058"/>
    <trip id="128" depart="128.00" from="-94193337#2" to="20200047#4"/>
    <trip id="129" depart="129.00" from="24756025" to="-953617233#3"/>
    <trip id="130" depart="130.00" from="-948576929" to="-31015699#12"/>
    <trip id="131" depart="131.00" from="-199675656#5" to="1351117399"/>
    <trip id="132" depart="132.00" from="582888957#0" to="38893925#1"/>
    <trip id="133" depart="133.00" from="257005240#1" to="-332579417#1"/>
    <trip id="134" depart="134.00" from="-27292992#1" to="-1242256464#0"/>
    <trip id="135" depart="135.00" from="-38772473" to="1031053441#1"/>
    <trip id="136" depart="136.00" from="697895745#4" to="-193958143#0"/>
    <trip id="137" depart="137.00" from="-901462441" to="2415174#3"/>
    <trip id="138" depart="138.00" from="-27292880#1" to="27292982#3"/>
    <trip id="139" depart="139.00" from="-207977706#2" to="-938233313"/>
    <trip id="140" depart="140.00" from="1351116395#7" to="-14351598#5"/>
    <trip id="141" depart="141.00" from="-395464552#2" to="686204498#0"/>
    <trip id="142" depart="142.00" from="-951591392" to="52565058"/>
    <trip id="143" depart="143.00" from="25654332#1" to="951591414"/>
    <trip id="144" depart="144.00" from="8253981#2" to="23180984#1"/>
    <trip id="145" depart="145.00" from="31015481#1" to="1242593615"/>
    <trip id="146" depart="146.00" from="623643720" to="176022356#1"/>
    <trip id="147" depart="147.00" from="1004928087" to="-43585213"/>
    <trip id="148" depart="148.00" from="-39195094" to="242046820#3"/>
    <trip id="149" depart="149.00" from="4049126#2" to="1416612077#0"/>
    <trip id="150" depart="150.00" from="23359571#1" to="-4536593#0"/>
    <trip id="151" depart="151.00" from="-878794037" to="16297152#4"/>
    <trip id="152" depart="152.00" from="-901462456" to="-30692174#2"/>
    <trip id="153" depart="153.00" from="-9027186#1" to="8400411"/>
    <trip id="154" depart="154.00" from="766176980#2" to="4049123#1"/>
    <trip id="155" depart="155.00" from="-837611123#2" to="-1058240752"/>
    <trip id="156" depart="156.00" from="-7742070#1" to="39195096"/>
    <trip id="157" depart="157.00" from="-901612637#0" to="376315345#2"/>
    <trip id="158" depart="158.00" from="-31015708#2" to="-31015857#2"/>
    <trip id="159" depart="159.00" from="-948576912#1" to="-1351096533#0"/>
    <trip id="160" depart="160.00" from="-870987731#2" to="-2558927#1"/>
    <trip id="161" depart="161.00" from="-951972237" to="-23279424#0"/>
    <trip id="162" depart="162.00" from="-8402484#0" to="197881706"/>
    <trip id="163" depart="163.00" from="-1269192612" to="2428138#0"/>
    <trip id="164" depart="164.00" from="-236841161#1" to="-951970807"/>
    <trip id="165" depart="165.00" from="-30728820#0" to="-685338940"/>
    <trip id="166" depart="166.00" from="4049113" to="-8376176#2"/>
    <trip id="167" depart="167.00" from="391598521#2" to="623643717#1"/>
    <trip id="168" depart="168.00" from="-400898252" to="-199518163#1"/>
    <trip id="169" depart="169.00" from="24338063" to="4481677#0"/>
    <trip id="170" depart="170.00" from="9048523#3" to="-27474073#1"/>
    <trip id="171" depart="171.00" from="-1175974339" to="-2430956#1"/>
    <trip id="172" depart="172.00" from="-231897708#1" to="25654782#3"/>
    <trip id="173" depart="173.00" from="381871425#4" to="-23163674"/>
    <trip id="174" depart="174.00" from="586978024#0" to="948576925"/>
    <trip id="175" depart="175.00" from="-58700264" to="26292721#5"/>
    <trip id="176" depart="176.00" from="948576909" to="-844076048"/>
    <trip id="177" depart="177.00" from="30728820#1" to="-197195591"/>
    <trip id="178" depart="178.00" from="-204348401#0" to="43585222#2"/>
    <trip id="179" depart="179.00" from="-23180919" to="951591404#0"/>
    <trip id="180" depart="180.00" from="4481772#2" to="-7742071#0"/>
    <trip id="181" depart="181.00" from="-9048636#1" to="-8258987#1"/>
    <trip id="182" depart="182.00" from="1208751035#0" to="-7742058#4"/>
    <trip id="183" depart="183.00" from="697895745#4" to="586978715#3"/>
    <trip id="184" depart="184.00" from="-206708011#1" to="948576914"/>
    <trip id="185" depart="185.00" from="33710728#0" to="948576927"/>
    <trip id="186" depart="186.00" from="-4370466#4" to="534087835#4"/>
    <trip id="187" depart="187.00" from="-948576912#0" to="325227908#1"/>
    <trip id="188" depart="188.00" from="623649810#0" to="-20197283#1"/>
    <trip id="189" depart="189.00" from="8117377#2" to="-395464552#0"/>
    <trip id="190" depart="190.00" from="-951591417" to="23180916#1"/>
    <trip id="191" depart="191.00" from="-30728820#2" to="51175591#0"/>
    <trip id="192" depart="192.00" from="274469882#0" to="-4536595#1"/>
    <trip id="193" depart="193.00" from="-199675656#7" to="31015699#0"/>
    <trip id="194" depart="194.00" from="1070356427" to="400898253"/>
    <trip id="195" depart="195.00" from="27267644#1" to="2430956#2"/>
    <trip id="196" depart="196.00" from="1428780933#1" to="-94193337#2"/>
    <trip id="197" depart="197.00" from="-39658929#1" to="-23180984#4"/>
    <trip id="198" depart="198.00" from="1067663303" to="31015708#3"/>
    <trip id="199" depart="199.00" from="951472868" to="1419224891#1"/>
    <trip id="200" depart="200.00" from="-27292880#0" to="-345602197#2"/>
    <trip id="201" depart="201.00" from="14351526#1" to="-4536592#3"/>
    <trip id="202" depart="202.00" from="27292964#1" to="-232718096#0"/>
    <trip id="203" depart="203.00" from="7742071#2" to="1111558736#1"/>
    <trip id="204" depart="204.00" from="779724941#0" to="19992579#2"/>
    <trip id="205" depart="205.00" from="-953617233#2" to="-948576935"/>
    <trip id="206" depart="206.00" from="-263347114#0" to="-1442484059#1"/>
    <trip id="207" depart="207.00" from="58700476" to="-870987731#2"/>
    <trip id="208" depart="208.00" from="-193958143#0" to="2415174#3"/>
    <trip id="209" depart="209.00" from="4049123#1" to="230547774#2"/>
    <trip id="210" depart="210.00" from="471138772#1" to="-33710728#0"/>
    <trip id="211" depart="211.00" from="-948576931" to="772274937#1"/>
    <trip id="212" depart="212.00" from="951970807" to="-586978715#0"/>
    <trip id="213" depart="213.00" from="36719933#2" to="9048522#3"/>
    <trip id="214" depart="214.00" from="253285495#0" to="-246803971#1"/>
    <trip id="215" depart="215.00" from="-25654782#3" to="-197195590#6"/>
    <trip id="216" depart="216.00" from="207977706#1" to="-534024688#6"/>
    <trip id="217" depart="217.00" from="-345602197#2" to="30686613#1"/>
    <trip id="218" depart="218.00" from="2660203" to="870987729#0"/>
    <trip id="219" depart="219.00" from="4536595#2" to="23359571#1"/>
    <trip id="220" depart="220.00" from="253285495#3" to="901462421#1"/>
    <trip id="221" depart="221.00" from="38772474#0" to="199515249#1"/>
    <trip id="222" depart="222.00" from="271949474#0" to="27474073#2"/>
    <trip id="223" depart="223.00" from="1105774248" to="-199514512#1"/>
    <trip id="224" depart="224.00" from="-652084516#0" to="-400898261#2"/>
    <trip id="225" depart="225.00" from="-20199976#5" to="948576917"/>
    <trip id="226" depart="226.00" from="66096598#1" to="20197283#2"/>
    <trip id="227" depart="227.00" from="-956667485" to="246803972#0"/>
    <trip id="228" depart="228.00" from="1080422514" to="-20200047#1"/>
    <trip id="229" depart="229.00" from="25654782#1" to="766176980#0"/>
    <trip id="230" depart="230.00" from="-51175591#0" to="9027186#4"/>
    <trip id="231" depart="231.00" from="564174522#4" to="18015691#2"/>
    <trip id="232" depart="232.00" from="-951591388" to="-617094407#2"/>
    <trip id="233" depart="233.00" from="-870987731#1" to="1351116395#9"/>
    <trip id="234" depart="234.00" from="951591417" to="253285243#0"/>
    <trip id="235" depart="235.00" from="146535600#6" to="-901462460#0"/>
    <trip id="236" depart="236.00" from="-26943025#1" to="-8117718#0"/>
    <trip id="237" depart="237.00" from="400898261#3" to="-30484527"/>
    <trip id="238" depart="238.00" from="-948576918" to="27292992#1"/>
    <trip id="239" depart="239.00" from="-23180923" to="951472859"/>
    <trip id="240" depart="240.00" from="23167685#0" to="-381871425#0"/>
    <trip id="241" depart="241.00" from="-951591408" to="-23180916#1"/>
    <trip id="242" depart="242.00" from="30731850#0" to="1351096533#0"/>
    <trip id="243" depart="243.00" from="-4481676#3" to="6272741#1"/>
    <trip id="244" depart="244.00" from="951591392" to="-395464552#0"/>
    <trip id="245" depart="245.00" from="8117343#0" to="7742060#1"/>
    <trip id="246" depart="246.00" from="-4481679#1" to="4536595#1"/>
    <trip id="247" depart="247.00" from="-901462442#0" to="901462421#2"/>
    <trip id="248" depart="248.00" from="1070356429" to="-2428027#3"/>
    <trip id="249" depart="249.00" from="176022355#1" to="163721162#0"/>
    <trip id="250" depart="250.00" from="-951591390#0" to="-670849047"/>
    <trip id="251" depart="251.00" from="199515248#3" to="-367986266"/>
    <trip id="252" depart="252.00" from="4370466#5" to="-1419224891#0"/>
    <trip id="253" depart="253.00" from="550988604#2" to="-8402465#1"/>
    <trip id="254" depart="254.00" from="951591394#0" to="1182143431"/>
    <trip id="255" depart="255.00" from="-1353886421#0" to="1208751035#0"/>
    <trip id="256" depart="256.00" from="78167649#2" to="-948576935"/>
    <trip id="257" depart="257.00" from="31015699#7" to="-901462424"/>
    <trip id="258" depart="258.00" from="24756033#0" to="-24328182#2"/>
    <trip id="259" depart="259.00" from="-953617233#3" to="950217968"/>
    <trip id="260" depart="260.00" from="745708734" to="77103500"/>
    <trip id="261" depart="261.00" from="-837611123#1" to="-635839034"/>
    <trip id="262" depart="262.00" from="30733077#2" to="400898260"/>
    <trip id="263" depart="263.00" from="779724935#3" to="-1351117399"/>
    <trip id="264" depart="264.00" from="-181799764#1" to="2415176#3"/>
    <trip id="265" depart="265.00" from="84822222" to="969804220"/>
    <trip id="266" depart="266.00" from="-202052944#5" to="2415185#3"/>
    <trip id="267" depart="267.00" from="779724935#3" to="-951472857"/>
    <trip id="268" depart="268.00" from="27289094#1" to="8390305#0"/>
    <trip id="269" depart="269.00" from="-1432629091#0" to="503334796"/>
    <trip id="270" depart="270.00" from="-529151014#4" to="-827404286#0"/>
    <trip id="271" depart="271.00" from="-242046820#1" to="14351598#2"/>
    <trip id="272" depart="272.00" from="197195590#4" to="471138772#0"/>
    <trip id="273" depart="273.00" from="-37371122#1" to="8402484#1"/>
    <trip id="274" depart="274.00" from="-400898260" to="-4049123#3"/>
    <trip id="275" depart="275.00" from="-1068477991" to="534024688#3"/>
    <trip id="276" depart="276.00" from="8376174" to="26292721#5"/>
    <trip id="277" depart="277.00" from="-7742056" to="202053019#5"/>
    <trip id="278" depart="278.00" from="242046820#1" to="-93649555#0"/>
    <trip id="279" depart="279.00" from="-395464552#5" to="68506857"/>
    <trip id="280" depart="280.00" from="1067663302#0" to="-37371122#3"/>
    <trip id="281" depart="281.00" from="953617233#0" to="-534087835#7"/>
    <trip id="282" depart="282.00" from="951591387" to="253285244#1"/>
    <trip id="283" depart="283.00" from="-4481677#1" to="19823660#1"/>
    <trip id="284" depart="284.00" from="26374214#0" to="371906799#4"/>
    <trip id="285" depart="285.00" from="1156585106#0" to="8390305#2"/>
    <trip id="286" depart="286.00" from="-471138778" to="51175598"/>
    <trip id="287" depart="287.00" from="2418032#3" to="232717964#4"/>
    <trip id="288" depart="288.00" from="253285243#0" to="667589129#1"/>
    <trip id="289" depart="289.00" from="236841161#0" to="8390305#0"/>
    <trip id="290" depart="290.00" from="242853523" to="-591934082#3"/>
    <trip id="291" depart="291.00" from="-948576925" to="20200047#2"/>
    <trip id="292" depart="292.00" from="-534024688#3" to="376315345#2"/>
    <trip id="293" depart="293.00" from="1428780933#1" to="8402485#0"/>
    <trip id="294" depart="294.00" from="623643720" to="-412571357#3"/>
    <trip id="295" depart="295.00" from="598147041#2" to="1068477998"/>
    <trip id="296" depart="296.00" from="534087835#2" to="376315345#0"/>
    <trip id="297" depart="297.00" from="948576921" to="-2415185#3"/>
    <trip id="298" depart="298.00" from="948576931" to="772274937#1"/>
    <trip id="299" depart="299.00" from="31015708#2" to="951591390#0"/>
    <trip id="300" depart="300.00" from="948576933#0" to="534024688#3"/>
    <trip id="301" depart="301.00" from="-1070356428#0" to="146535600#1"/>
    <trip id="302" depart="302.00" from="257005240#0" to="202052944#1"/>
    <trip id="303" depart="303.00" from="58700515" to="901462471"/>
    <trip id="304" depart="304.00" from="-227832674" to="-367986266"/>
    <trip id="305" depart="305.00" from="-1242256464#1" to="8173114#0"/>
    <trip id="306" depart="306.00" from="18942165#1" to="8402490#1"/>
    <trip id="307" depart="307.00" from="-31015708#4" to="-18015690"/>
    <trip id="308" depart="308.00" from="-54258380" to="-901462421#1"/>
    <trip id="309" depart="309.00" from="-564174522#1" to="1156585095#1"/>
    <trip id="310" depart="310.00" from="-236841161#1" to="-951591401"/>
    <trip id="311" depart="311.00" from="25654782#2" to="367991#1"/>
    <trip id="312" depart="312.00" from="9027186#4" to="-9027684"/>
    <trip id="313" depart="313.00" from="1070356429" to="-901462421#0"/>
    <trip id="314" depart="314.00" from="9048636#0" to="-1351116395#1"/>
    <trip id="315" depart="315.00" from="-8199521#0" to="-951472855#0"/>
    <trip id="316" depart="316.00" from="-8117326#2" to="-870987725#0"/>
    <trip id="317" depart="317.00" from="-271949474#5" to="-23188752#0"/>
    <trip id="318" depart="318.00" from="697895745#0" to="-951591404#0"/>
    <trip id="319" depart="319.00" from="210328044#1" to="-1186355842#1"/>
    <trip id="320" depart="320.00" from="-23188752#2" to="197881958"/>
    <trip id="321" depart="321.00" from="-24239576#2" to="8376176#1"/>
    <trip id="322" depart="322.00" from="-2418095#3" to="-23293121"/>
    <trip id="323" depart="323.00" from="-395464553#0" to="-2576387#0"/>
    <trip id="324" depart="324.00" from="253285495#3" to="-1256612358"/>
    <trip id="325" depart="325.00" from="-1070356430" to="4536595#1"/>
    <trip id="326" depart="326.00" from="-25654782#4" to="-1442484059#4"/>
    <trip id="327" depart="327.00" from="37371122#4" to="1058240752"/>
    <trip id="328" depart="328.00" from="4481676#1" to="1351116395#5"/>
    <trip id="329" depart="329.00" from="-227851342" to="1242256464#0"/>
    <trip id="330" depart="330.00" from="9027186#3" to="-1419224890"/>
    <trip id="331" depart="331.00" from="451262790" to="7742066#1"/>
    <trip id="332" depart="332.00" from="1353886421#2" to="-951591412"/>
    <trip id="333" depart="333.00" from="948576924" to="-176022354#0"/>
    <trip id="334" depart="334.00" from="8402471#0" to="-196819984"/>
    <trip id="335" depart="335.00" from="-199514512#0" to="23163674"/>
    <trip id="336" depart="336.00" from="-18016742" to="-4536593#1"/>
    <trip id="337" depart="337.00" from="-667589129#1" to="956667485"/>
    <trip id="338" depart="338.00" from="1428780933#0" to="-951591401"/>
    <trip id="339" depart="339.00" from="230547774#0" to="-204348401#0"/>
    <trip id="340" depart="340.00" from="243398492#1" to="42407074"/>
    <trip id="341" depart="341.00" from="31015699#12" to="-31015699#4"/>
    <trip id="342" depart="342.00" from="-951472864" to="-345602201"/>
    <trip id="343" depart="343.00" from="-726102560#1" to="-951591395"/>
    <trip id="344" depart="344.00" from="-901462460#0" to="-202052944#1"/>
    <trip id="345" depart="345.00" from="-8258987#1" to="-2430956#1"/>
    <trip id="346" depart="346.00" from="870987726" to="-181799764#0"/>
    <trip id="347" depart="347.00" from="-20201132#1" to="348848083#1"/>
    <trip id="348" depart="348.00" from="564174521" to="185502274#1"/>
    <trip id="349" depart="349.00" from="202052944#1" to="196819984"/>
    <trip id="350" depart="350.00" from="31015699#13" to="948576934"/>
    <trip id="351" depart="351.00" from="22966983#1" to="-779724941#0"/>
    <trip id="352" depart="352.00" from="250324165#0" to="-332579417#0"/>
    <trip id="353" depart="353.00" from="-227832674" to="68506857"/>
    <trip id="354" depart="354.00" from="-8179323#0" to="4049118#0"/>
    <trip id="355" depart="355.00" from="199675656#2" to="534087835#0"/>
    <trip id="356" depart="356.00" from="582888957#0" to="23180984#4"/>
    <trip id="357" depart="357.00" from="2428027#0" to="-1269192611"/>
    <trip id="358" depart="358.00" from="878794033" to="613265812"/>
    <trip id="359" depart="359.00" from="-43585222#7" to="-26292721#5"/>
    <trip id="360" depart="360.00" from="27474094#1" to="-591934082#3"/>
    <trip id="361" depart="361.00" from="7742074" to="19823660#3"/>
    <trip id="362" depart="362.00" from="-9027186#0" to="-7742058#2"/>
    <trip id="363" depart="363.00" from="-8179323#9" to="31015699#3"/>
    <trip id="364" depart="364.00" from="4481674#1" to="199514512#0"/>
    <trip id="365" depart="365.00" from="-199675656#5" to="-1442484060#1"/>
    <trip id="366" depart="366.00" from="253285495#5" to="1070356430"/>
    <trip id="367" depart="367.00" from="-948576929" to="-4536591"/>
    <trip id="368" depart="368.00" from="395464552#5" to="-230843465"/>
    <trip id="369" depart="369.00" from="-94193337#2" to="-51175591#0"/>
    <trip id="370" depart="370.00" from="26292721#2" to="1070356433"/>
    <trip id="371" depart="371.00" from="25654332#0" to="-1430348664"/>
    <trip id="372" depart="372.00" from="-8402490#0" to="227851342"/>
    <trip id="373" depart="373.00" from="-30728430#1" to="-2415176#1"/>
    <trip id="374" depart="374.00" from="-401308655" to="-686204226"/>
    <trip id="375" depart="375.00" from="-1067663301#2" to="376315345#1"/>
    <trip id="376" depart="376.00" from="-18942165#1" to="7742058#1"/>
    <trip id="377" depart="377.00" from="84822238" to="7742058#2"/>
    <trip id="378" depart="378.00" from="199675656#6" to="19992579#0"/>
    <trip id="379" depart="379.00" from="-230547774#0" to="-1186355842#0"/>
    <trip id="380" depart="380.00" from="-667589129#0" to="52565058"/>
    <trip id="381" depart="381.00" from="231897708#0" to="623643717#1"/>
    <trip id="382" depart="382.00" from="8402503#0" to="-20197794"/>
    <trip id="383" depart="383.00" from="-8402490#1" to="-598147041#2"/>
    <trip id="384" depart="384.00" from="-7466478#1" to="-699304735#3"/>
    <trip id="385" depart="385.00" from="-230547770#1" to="1351116390#0"/>
    <trip id="386" depart="386.00" from="564174530" to="-37371122#0"/>
    <trip id="387" depart="387.00" from="230547769#0" to="400898261#1"/>
    <trip id="388" depart="388.00" from="43585224" to="1156585106#2"/>
    <trip id="389" depart="389.00" from="395464552#4" to="400898261#0"/>
    <trip id="390" depart="390.00" from="-951472859" to="870987729#0"/>
    <trip id="391" depart="391.00" from="23279424#2" to="7742060#3"/>
    <trip id="392" depart="392.00" from="236840721#0" to="-242853523"/>
    <trip id="393" depart="393.00" from="-550988604#1" to="-4536593#0"/>
    <trip id="394" depart="394.00" from="-586978715#1" to="-951591392"/>
    <trip id="395" depart="395.00" from="-197195590#7" to="7742060#3"/>
    <trip id="396" depart="396.00" from="7466481#4" to="23182788"/>
    <trip id="397" depart="397.00" from="827388006" to="-951591387"/>
    <trip id="398" depart="398.00" from="54244431#2" to="246803972#1"/>
    <trip id="399" depart="399.00" from="-2428027#3" to="-176022355#1"/>
    <trip id="400" depart="400.00" from="-766176980#2" to="30728820#2"/>
    <trip id="401" depart="401.00" from="120755374#9" to="-25654782#4"/>
    <trip id="402" depart="402.00" from="-39195095" to="-948576929"/>
    <trip id="403" depart="403.00" from="-948576922" to="1418274918#0"/>
    <trip id="404" depart="404.00" from="-18016833#0" to="-20201506"/>
    <trip id="405" depart="405.00" from="31015708#0" to="253285203"/>
    <trip id="406" depart="406.00" from="8402455#2" to="779724935#3"/>
    <trip id="407" depart="407.00" from="948576933#1" to="27292992#3"/>
    <trip id="408" depart="408.00" from="-8402473#1" to="209694797#1"/>
    <trip id="409" depart="409.00" from="901462433" to="-598147041#0"/>
    <trip id="410" depart="410.00" from="564174522#3" to="25654782#5"/>
    <trip id="411" depart="411.00" from="2428138#4" to="-9048634#5"/>
    <trip id="412" depart="412.00" from="9048522#1" to="1070356432"/>
    <trip id="413" depart="413.00" from="-325227908#0" to="-2415176#2"/>