<?xml version="1.0" encoding="UTF-8"?>

<!-- generated on 2026-04-11T19:58:41.516149+00:00 by Eclipse SUMO duarouter 1.25.0
<duarouterConfiguration xmlns:xsi="http://www.w3.org/2001/XMLSchema-instance" xsi:noNamespaceSchemaLocation="http://sumo.dlr.de/xsd/duarouterConfiguration.xsd">

    <input>
        <net-file value="2_ts2qs.net.xml"/>
        <route-files value="2_ts2qs.trips.xml"/>
    </input>

    <output>
        <output-file value="2_ts2qs.rou.xml"/>
    </output>

</duarouterConfiguration>
-->

<routes xmlns:xsi="http://www.w3.org/2001/XMLSchema-instance" xsi:noNamespaceSchemaLocation="http://sumo.dlr.de/xsd/routes_file.xsd">
<vType id="egoType" accel="0.1" decel="0.1" sigma="0.5" length="4.5" minGap="0.1" maxSpeed="30"/>    

    <vehicle id="0" depart="0.00">
        <route edges="2876129#0 -2876129#0 886364501#2 886364501#3 -17926243 1177427780 3100051 534676024#0 534676024#1 534676028 546461336 1177427782 546461337 84697865 741737876#0 -166364278 -975110685 -975110686 -1006875809 -975110688 -975110689 -827537922 -954788181 -38427087 689560665 36814927#0 648541444 665884210 -109850082#2"/>
    </vehicle>
    <vehicle id="1" depart="1.00">
        <route edges="-55337113#2 -55337113#1 -48379506#2 -48379506#1 -48379506#0 8491226#1 166483493#0 166483493#1 558371517#0 4607834#0 4607834#1 980948850#0 980948850#1 980948850#2 637034137#0 330341#1 330341#2 330341#3 75687497#1 316805864 184790487#0 184790487#1 63972387 109850065 109850060 648564129 38427087 954788181 827537922 975110689 975110688 1006875809 975110686 975110685 166364278 -741737876#0 -84697865 -546461337 -1177427782 -546461336 -534676028 -534676024#1 -534676024#0 -3100051 -1177427780 17926243 -886364501#3 -886364501#2 -886364501#0 -49932195#2 -49932195#1 -49932195#0 -884363127#0 -3127736#6 -3127736#3 -3127736#0 -884363125#1 -884363125#0 -17513379#2 -17513379#1 4253996#1 -4256304#1"/>
    </vehicle>
    <vehicle id="2" depart="2.00">
        <route edges="4253993#1 4253993#2 987343790#0 -438321535#3 -438321535#0 4256304#1 561132269#1 561132269#2 561132269#3 561132269#4 78335461 121988892 1112581142 207115414 825288048 1232975552 1112581146 1112581147#0 1112581147#1 234575098 825184199 234575101 825184200 825518134 1232962022 825518135 -38060076 -746410873 1112581148 1112581149 1112581150 1232962018 1112581152 1112581151#0 1112581151#1 1112581151#2 746410869 379356920#0 379356920#1 207107597#0 207107597#1 207107597#2 380467034 1065258330 234572145 367808662 36814929 1065218273#0 1065218273#1 367808658 1065218272#1 43892835 1065218271 367808673 286754719 1145582373 43892837#1 43892837#2 299652848 7744558 201491584 825529982 501181888#0 825529976 648549848#0 648549848#1 648549848#2 1238203869#0 1238203869#1 1238203869#2 26072429#0 26072429#1 26072429#2 59374120#0 59374120#1 59374120#3 59374120#4 -26072428 -1338576651#1 -1338576651#0 -188128548#4 -188128548#3 -188128548#2 47048136#2 47048136#3 47048136#4 47048136#5 47048136#6 -99961287#7 -99961287#6 -99961287#4 -99961287#3 -99961287#2 1462354001#0 27928471 32636450#0"/>
    </vehicle>
  <vehicle id="ego" type="egoType" depart="3.00" departSpeed="5" color="1,0,0">
    <!-- vehicle id="3" depart="3.00" -->
        <route edges="7744565#2 36834285#1 36834285#2 500005090#0 500005090#1 500005090#2 4607833#1 -945034906#1 197476947#0 4607836#1 4607836#2 234289724#3 1065218275#0 75687497#1 316805864 184790487#0 184790487#1 63972387 109850065 109850060 648564129 38427087 954788181 827537922 975110689 385085394#1 385085394#2 -17926244 -166585296#4"/>
    </vehicle>
    <vehicle id="4" depart="4.00">
        <route edges="1065218273#0 1065218273#1 367808658 1065218272#1 43892835 1065218271 367808673 286754719 1145582373 35468477#1 35468477#2 1070366922 1070366921#0 1070366921#1 1070366920 1112581154 2509157 1101475691#0 1101475691#1 39028323 1101475690 648551913#0 648551913#1 1145582383 1145582384 665884209 234289724#0 234289724#1 234289724#3 1065218275#0 75687497#1 316805864 615648531#0 615648531#1 43872913 262591660 425548224#0 425548224#1 425548223 1065218277 286754711#0 286754711#1 286754711#2 1065218278 262591658#0 262591658#1 1068358104 1073693270#0 -1420246979 -303994870 -608159137 -1420246978 -166490813#1 -166490813#0 -1246181910#0 -1184092350 -1184092351#1 -1184092351#0"/>
    </vehicle>
    <vehicle id="5" depart="5.00">
        <route edges="-4253992#1 -4253993#1 -4253993#0 -987343785#1 -987343785#0 17513379#1 17513379#2 884363125#0 884363125#1 4253965 1007529695#1 1007529694#0 1258463805#1 1453472282"/>
    </vehicle>
    <vehicle id="6" depart="6.00">
        <route edges="30199824#0 30199824#1 30199824#2 30199824#4 -238913649#1 8386793#0 8386793#1 8386793#2 8386793#3 8386793#5 8386793#7 8386793#8 2466941#10 2466941#11 2466941#12 2466941#13 188128548#2 188128548#3 188128548#4 -48379506#2 -48379506#1 -48379506#0 8491226#1 166483493#0 166483493#1 558371517#0 4607834#0 4607834#1 980948850#0 980948850#1 980948850#2 637034137#0 330341#1 330341#2 330341#3 75687497#1 316805864 184790487#0"/>
    </vehicle>
    <vehicle id="7" depart="7.00">
        <route edges="513773776#1 513773776#2 -513773776#2 -513773776#1 104409482#1 527084929 1065127943 527084930#0 527084930#1 8169022#0 8169022#1 8169022#2 605454356#1 49932201#0 49932201#1 -438319268#1 -438319268#0 -1024919682 -886364504 886364501#0 886364501#2 886364501#3 -17926243 1177427780 3100051 534676024#0 534676024#1 534676028 546461336 1177427782 546461337 84697865 741737876#0 -166364278 -975110685 -975110686 -1006875809 -975110688 -975110689 -827537922 -954788181 -38427087 689560665 36814927#0 648541444 665884210 234296720 234296718#0 41518097 591922929 591922928#1 1065218272#1 43892835 1065218271 367808673 286754719 1145582373 43892837#1 43892837#2 299652848 7744558 201491584 825529982 501181888#0 825529976 648549848#0 648549848#1 648549848#2 1238203869#0 1238203869#1 1238203869#2 26072429#0 26072429#1 36775557#0 36775557#1 -1044490000#3 -1044490000#2"/>
    </vehicle>
    <vehicle id="8" depart="8.00">
        <route edges="500005090#1 500005090#2 -7744564#1 584351058 824211199 1070366925#3 1070366924#0 1070366924#1 43573215#0 8347028#0 8347028#1 8347028#2 8347028#3 8347028#4 8347028#5 825529976 648549848#0 648549848#1 648549848#2 1238203869#0 1238203869#1 1238203869#2 26072429#0 26072429#1 36775557#0"/>
    </vehicle>
    <vehicle id="9" depart="9.00">
        <route edges="-827537927#1 -827537927#0 -975124085 -954782766#1 954782766#1 975124085 827537927#0 827537927#1 1385456332 1390791580 827537929#0 1385456326 949246252 949246254#0 949246254#1 827537932 827537931#0 1006650875#0 1006650875#1 1006650874 1006870311 1460595033#0 156159278 608159138 608159133 17926247 1184092351#0 1184092351#1 1184092350 1246181910#0 166490813#0 166490813#1 1420246978 608159137 303994870 1420246979 3754158#1 3754158#2 3754158#3 3754158#4 3754158#5 3754158#6 4253829 -662534292#1 -662534292#0 4254008 662534293#0 662534293#1 3318926#0 -30575232#5 -30575232#3 30576515#0 30576515#1 30576515#2 330341#3 681004573#1 -197476948#2 -197476948#0 4607837#1 4607837#2 4607837#3 7744565#1 7744565#2 1333150493#1 574899894 8179128#5 59374120#3 59374120#4 -26072428 -1338576651#1 -1338576651#0 -188128548#4 -188128548#3 -188128548#2 47048136#2 47048136#3 6578219#1 6578219#2 6578219#4 6578219#5 1462432302#1 1462432302#2 30199425#0 30199425#1 -30199425#1"/>
    </vehicle>
    <vehicle id="10" depart="10.00">
        <route edges="871216779#1 871216779#2 237396756#0 237396757 929968173#1 837464392 564115135 871216781 882785553 871216780 837464390 237396922 1070356411 374047987 835625840#0 835625840#1 835625840#2 835625840#3 835625840#5 835625840#6 837464368#0 837464368#1 837464383 837464385 823982875 1265029521 823982876 1265029522 837464369 835624889 564115147 564115131 835624890 5044806 1256019037 166369924 1272910643 837464375 1256019036 5044805 1272910831 -1272910831 -5044805 -1256019036 -837464375 -1272910643 -166369924 -1256019037 -5044806 -835624890 -564115131 -564115147 -835624889"/>
    </vehicle>
    <vehicle id="11" depart="11.00">
        <route edges="637034136#5 980948850#0 980948850#1 980948850#2 637034137#0 330341#1 330341#2 330341#3 75687497#1 316805864 615648531#0 615648531#1 43872913 262591660 425548224#0 425548224#1 425548223 1065218277 286754711#0 286754711#1 286754711#2 1065218278 262591658#0 262591658#1 1068358104 1073693270#0 -1420246979 -303994870 -608159137 -1420246978 -166490813#1 -166490813#0 -1246181910#0 -1184092350 -1184092351#1 -1184092351#0 -17926247 -608159133 608159142 -156159278 -1460595033#0 -1006870311 -1006650874 -1006650875#1 -1006650875#0 -1068540424 -888009900#2 -888009900#0 -1068540423 -49932204#4 -49932204#3 -49932204#1 -49932204#0 25803168 -7846317 -25803169#1 25803169#1"/>
    </vehicle>
    <vehicle id="12" depart="12.00">
        <route edges="500005092#2 648549848#0 648549848#1 648549848#2 1238203869#0 1238203869#1 1238203869#2 26072429#0 26072429#1 26072429#2 1070366928 1070366927 36775550#0 36775550#1 36775549#0 36775549#1 500005091 500005090#0 500005090#1 500005090#2 4607833#1 -945034906#1 197476947#0 4607836#1 4607836#2 234289724#3 1065218275#0 75687497#1 316805864 615648531#0 615648531#1 43872913 262591660 425548224#0 425548224#1 4253730#1 4253730#2 -4253707 4253828#1 681004435 681004436#0 681004436#2 681004437#0 681004437#1 4253828#0"/>
    </vehicle>
    <vehicle id="13" depart="13.00">
        <route edges="166364278 -166364278 -975110685 -975110686 -1006875809 -975110688 -975110689 -827537922 -954788181 -38427087 689560665 36814927#0 648541444 665884210 234296720 234296718#0 41518097 591922929 591922928#1 449113135#1 1112581153 41518099 1112581154 2509157 1101475691#0 1101475691#1 1374522009#0 1374522009#1 379356932 1385475417 197476574 1385475416 199521016 945034906#1"/>
    </vehicle>
    <vehicle id="14" depart="14.00">
        <route edges="-913017011#2 -913017011#1 -913017011#0 913017011#0 913017011#1 913017011#2 199513144#0 199513144#1 199513265#2 199513265#3 1432386620#3 1432386620#4 49932205#1 157547569#1 1432386625#0 -888009901#1 -888009901#0 1068540423 888009900#0 888009900#2 1068540424 1006650875#0 1006650875#1 1006650874 1006870311 1460595033#0 156159278 608159138 608159133 17926247 1184092351#0 1184092351#1 1184092350 1246181910#0 166490813#0 166490813#1 1420246978 608159137 303994870 1420246979 3754158#1 3754158#2 3754158#3 3754158#4 3754158#5 3754158#6 4253829 -662534292#1 -662534292#0 4254008 662534293#0 662534293#1 3318926#0 -30575232#5 -30575232#3 30576515#0 30576515#1 30576515#2 330341#3 681004573#1 679330695#0 679330695#2 679330697 1209438647 1065218274 75687499#3 197476980#0 197476980#2 197476980#3"/>
    </vehicle>
    <vehicle id="15" depart="15.00">
        <route edges="673733343#0 673733343#1 -673733343#1 -673733343#0 -96885307 -206996916 -648541446#2 -648541446#1 -648541446#0 -1065258325 -1065258326#2 -1065258326#1 -971212677#1 -971212677#0 -206996918 -207107599#4 -207107599#3 -207107599#2 -207107599#1 -207107599#0 380467041 380467043 23396293#0 23396293#1 380467044#0 380467044#1 1065258330 234572145 367808662 1112596815 17279601#0 449113135#1 1112581153 41518099 1112581154 2509157 1101475691#0 1101475691#1 1374522009#0 1374522009#1 379356932 1385475417 197476574 1385475416 199521016 197476947#0 197476948#0 197476948#2 679330695#0 679330695#2 679330697 1209438647 1065218274 75687499#3 197476980#0 197476980#2 197476980#3 197476980#4 197476980#5 234295188#0"/>
    </vehicle>
    <vehicle id="16" depart="16.00">
        <route edges="367808673 286754719 1145582373 35468477#1 35468477#2 1070366922 1070366921#0 1070366921#1 1070366920 1112581154 2509157 1101475691#0 1101475691#1 39028323 1101475690 648551913#0 648551913#1 1145582383 1145582384 665884209 234289724#0 234289724#1 234289724#3 1065218275#0 75687497#1 316805864 615648531#0 615648531#1 43872913 262591660 425548224#0 425548224#1 425548223 1065218277 286754711#0 286754711#1 286754711#2 1065218278 262591658#0 262591658#1 1068358104 1073693270#0 -1420246979 -303994870 -608159137 -1420246978 -166490813#1 -166490813#0 -1246181910#0 -1184092350 -1184092351#1 -1184092351#0 -17926247 -608159133 608159142 -156159278 -1460595033#0 -1006870311 -1006650874 -1006650875#1 -1006650875#0 827537931#1 949246251 949246250 954782755 827537933#0 827537933#1 975124076 954648754#0 954648754#1 1006868256 954782756 975124074 975124070 954782754#1 975124064 975124065 827537936#0 827537938#1 954782751#1 827537941#0 827537941#1 827537939#0 827537939#2 827537939#3 1250159682 1250159685 2953567#0 2953567#1 -2953567#1 -2953567#0 -1250159685"/>
    </vehicle>
    <vehicle id="17" depart="17.00">
        <route edges="-4256185#1 740846310#0 49932190#1 49932190#2 561130616#0 561130616#1 1232962016 49932192 1065258329 234575099 838389343 837448602#0 837448602#1 746410873 38060076 -38060076 -746410873 1112581148 1112581149 1112581150 1232962018 1112581152 1112581151#0 1112581151#1 1112581151#2 746410869 379356920#0 379356920#1 207107597#0 207107597#1 207107597#2 207108043#0 207108043#1 380467042 207107599#0 207107599#1 207107599#2 207107599#3 207107599#4 206996918 971212677#0 971212677#1 1065258326#1 1065258326#2 1065258325 648541446#0 648541446#1 648541446#2 206996916 96885307 673733343#0 673733343#1 -673733343#1 -673733343#0 -96885307 -206996916 -648541446#2"/>
    </vehicle>
    <vehicle id="18" depart="18.00">
        <route edges="-16292271#0 16292271#0 16292271#1 16292271#3 16292271#4 2466941#7 2466941#8 2466941#10 2466941#11 2466941#12 2466941#13 188128548#2 188128548#3 188128548#4 -48379506#2 -48379506#1 -48379506#0 8491226#1 166483493#0 166483493#1 558371517#0 4607834#0 4607834#1 980948850#0 980948850#1 980948850#2 637034137#0 330341#1 330341#2 330341#3 75687497#1 316805864 615648531#0 615648531#1 43872913 262591660 425548224#0 425548224#1 425548223 1065218277 286754711#0 286754711#1 286754711#2 1065218278 262591658#0 262591658#1 1068358104 1073693270#0 -1420246979 -303994870 -608159137 -1420246978 -166490813#1 -166490813#0 -1246181910#0 -1184092350 -1184092351#1 -1184092351#0 -17926247 -608159133 608159142 -156159278 -1460595033#0 -1006870311 -1006650874 -1006650875#1 -1006650875#0 -1068540424 -888009900#2 -888009900#0 -1068540423 -49932204#4 -49932204#3 -49932204#1 -49932204#0 -438313419 -10064542#1 -10064542#0 2876710#0 2876710#1 2876710#2 2876710#4 2876710#6 438311804 744427795 513773775#2 2876891 1337345972 567941589#0 438311806#1 1065127945#0 1065127945#1 1065127946#0 -1065127946#0 -1065127945#1 -1065127945#0 -438311806#1"/>
    </vehicle>
    <vehicle id="19" depart="19.00">
        <route edges="-199513144#0 199513144#0 199513144#1 199513265#2 199513265#3 1432386620#3 1432386620#4 49932205#1 157547569#1 1432386625#0 -888009901#1 -888009901#0 1068540423 888009900#0 888009900#2 1068540424 1006650875#0 1006650875#1 1006650874 1006870311 1460595033#0 156159278 608159138 608159133 17926247 1184092351#0 1184092351#1 1184092350 1246181910#0 166490813#0 166490813#1 1420246978 608159137 303994870 1420246979 3754158#1 3754158#2 3754158#3 3754158#4 3754158#5 3754158#6 4253829 -662534292#1 -662534292#0 4254008 662534293#0 662534293#1 3318926#0 -30575232#5 -30575232#3 30576515#0 30576515#1 30576515#2 330341#3 681004573#1 -197476948#2 -197476948#0 4607837#1 4607837#2 4607837#3 7744565#1 7744565#2 1333150493#1 574899894 8179128#5 59374120#3 59374120#4 -26072428 -1338576651#1 -1338576651#0 1338576651#0 1338576651#1 26072428 -59374120#4 -59374120#3"/>
    </vehicle>
    <vehicle id="20" depart="20.00">
        <route edges="28509883#5 28509883#6 1302788072 1302788071 1272914620#0 1272914620#1 871216779#0 871216779#1 871216779#2 237396756#0 237396757 929968173#1 837464392 564115135 871216781 882785553 871216780 837464390 237396922 1070356411 374047987 835625840#0 835625840#1 835625840#2 835625840#3 835625840#5 835625840#6 837464368#0 837464368#1 837464383 837464385 823982875 1265029521 823982876 1265029522 837464369 835624889 564115147 564115131 835624890 5044806 1256019037 166369924 1272910643 837464375 1256019036 5044805 1272910831 825529978#0 825529978#1 1212624127 825529981#0 825529981#1 825529981#2 1237115247 1237115246#0 1237115246#1 564115127 837464374 201491587 201491584 825529982 501181888#0 825529976 648549848#0 648549848#1 648549848#2 1238203869#0 1238203869#1 1238203869#2 26072429#0 26072429#1 26072429#2 1070366928 1070366927 36775550#0 36775550#1 36775549#0 36775549#1 500005091 500005090#0 500005090#1 500005090#2 4607833#1 -945034906#1 197476947#0 4607836#1 4607836#2 234289724#3 1065218275#0 75687497#1 316805864 184790487#0 184790487#1 63972387 109850065 109850060 648564129 38427087 954788181 827537922 975110689 975110688 1006875809 975110686 975110685 166364278 -741737876#0 -84697865 -546461337 -1177427782 -546461336 -534676028 -534676024#1 -534676024#0 -3100051 -1177427780 17926243 -886364501#3 -886364501#2 2876129#0 33281709#0 -1024919682 -886364504"/>
    </vehicle>
    <vehicle id="21" depart="21.00">
        <route edges="-500005090#1 -500005090#0 -36834285#2 -36834285#1 1333150493#1 574899894 8179128#5 59374120#3 59374120#4 -26072428 -1338576651#1 -1338576651#0 -188128548#4 -188128548#3 -188128548#2 -2466941#13 -2466941#12 -2466941#11 -2466941#10 -2466941#8 -2466941#7 -2466941#6 -2466941#5 -2466941#4 -2466941#3 -2466941#1 -823982875 -837464385 -837464383 -837464368#1 -837464368#0 -835625840#6 -835625840#5 -835625840#3 835625840#3 835625840#5"/>
    </vehicle>
    <vehicle id="22" depart="22.00">
        <route edges="30199424#0 30199424#1 -1462432302#2 -1462432302#1 -6578219#5 -6578219#4 -6578219#2 -6578219#1 -47048136#3 -47048136#2 188128548#2 188128548#3 188128548#4 1338576651#0 1338576651#1 26072428 -59374120#4 -59374120#3 -15693581#0 -36775557#1 -36775557#0 26072429#2"/>
    </vehicle>
    <vehicle id="23" depart="23.00">
        <route edges="-30199824#2 -30199824#1 -30199824#0 30199824#0 30199824#1 30199824#2 30199824#4 -238913649#1 8386793#0 8386793#1 8386793#2 8386793#3 8386793#5 8386793#7 8386793#8 2466941#10 2466941#11 2466941#12 2466941#13 188128548#2 188128548#3 188128548#4 -48379506#2 -48379506#1 -48379506#0 8491226#1 166483493#0 166483493#1 558371517#0 4607834#0 4607834#1 980948850#0 980948850#1 980948850#2 637034137#0 330341#1 330341#2 330341#3 75687497#1 316805864 184790487#0 184790487#1 63972387 109850065 109850060 648564129 38427087 954788181 827537922 975110689 385085394#1 968429190 968429191 4256611 -4256611 -968429191"/>
    </vehicle>
    <vehicle id="24" depart="24.00">
        <route edges="975110686 975110685 166364278 -741737876#0 -84697865 -546461337 -1177427782 -546461336 -534676028 -534676024#1 -534676024#0 -3100051 -1177427780 17926243 -886364501#3 -886364501#2 -886364501#0 886364504 1024919682 438319268#0 438319268#1 -49932201#1 -49932201#0 -605454356#1 605454355#1 605454355#2 2876710#0 2876710#1 2876710#2 2876710#4 2876710#6 438311804 744427795 513773775#2 215298798#2 438310844#0 438310844#1 7970885 567941583 438310842#0 2876892#2"/>
    </vehicle>
    <vehicle id="25" depart="25.00">
        <route edges="197476980#4 197476980#5 234295188#0 234295188#1 -234295188#1 -234295188#0 -197476980#5 -197476980#4 -197476980#3 -197476980#2 -197476980#0 -75687499#3 330341#1 330341#2 330341#3 75687497#1 316805864 184790487#0 184790487#1 63972387 109850065 109850060 648564129 38427087 954788181 827537922 975110689 975110688 1006875809 975110686 975110685 166364278 -741737876#0 -84697865 -546461337 -1177427782 -546461336 -534676028 -534676024#1 -534676024#0 -3100051 -1177427780 17926243 -886364501#3 -886364501#2 2876129#0 33281860"/>
    </vehicle>
    <vehicle id="26" depart="26.00">
        <route edges="6268144 41518097 591922929 591922928#1 449113135#1 1112581153 41518099 1112581154 2509157 1101475691#0 1101475691#1 1374522009#0 1374522009#1 379356932 1385475417 197476574 1385475416 199521016 197476947#0 197476948#0 197476948#2 679330695#0 679330695#2 679330697 1209438647 1065218274 -637034137#0 -980948850#2 -980948850#1 -980948850#0 4607839#1 4607839#3"/>
    </vehicle>
    <vehicle id="27" depart="27.00">
        <route edges="-4256607 -4592636 -954782745#0 -166364279#1 -166364279#0 -166364278 -975110685 -975110686 -1006875809 -975110688 -975110689 -827537922 -954788181 -38427087 689560665 36814927#0 648541444 665884210 -109850082#2 -109850082#1 -109850082#0 -109850072 -3754138#2 -3754138#1 234289724#3 1065218275#0 681004573#1 679330695#0 -4607885#2 -4607885#1 637034136#5 -4607834#1 -4607834#0 35468693#1 119695445 119695444#0 -119695444#0"/>
    </vehicle>
    <vehicle id="28" depart="28.00">
        <route edges="-746410873 1112581148 1112581149 1112581150 1232962018 1112581152 1112581151#0 1112581151#1 1112581151#2 746410869 379356920#0 379356920#1 207107597#0 207107597#1 207107597#2 380467034 1065258330 234572145 367808662 36814929 1065218273#0 1065218273#1 367808658 1065218272#1 43892835 1065218271 367808673 286754719 1145582373 43892837#1 43892837#2 299652848 201491583#0 201491583#1 201491583#2 201491583#3 201493132 1212624126 -837464374 -564115127 -1237115246#1 -1237115246#0 -1237115247 -825529981#2 -825529981#1 -825529981#0 -1212624127 -825529978#1 -825529978#0 -1272910831 -5044805 -1256019036 -837464375 -1272910643 -166369924 -1256019037 -5044806 -835624890 -564115131 -564115147 -835624889 -837464369 -1265029522 -823982876 -1265029521 159483599#2 159483599#5 557519243#0 557519243#1 -557519243#1 -557519243#0"/>
    </vehicle>
    <vehicle id="29" depart="29.00">
        <route edges="-4253629#0 -561379444 -23918410#1 -23918410#0 -23918352#5 -23918352#4 -23918352#3 -23918352#2 199513265#2 199513265#3 1432386620#3 1432386620#4 49932205#1 25803170 199776462#0 199776462#1 1250159679#0 1250159679#1 -827537939#3 -827537939#2 -827537939#0 -827537941#1 -827537941#0 -954782751#1 -827537938#1 -827537936#0 -975124065 -975124064 -954782754#1 -975124070 -975124074 -954782756 -1006868256 -954648754#1 -954648754#0 -975124076 -827537933#1 -827537933#0 -954782755 -949246250 -949246251 -827537931#1 -827537931#0 -827537932 -949246254#1 -949246254#0 -949246252 3284233#1 3284233#2 3284233#3 3284233#4 4256839 17926245 166585296#0 166585296#1 166585296#2 166585296#3 166585296#4 17926244 -385085394#2 -385085394#1 -975110689 -827537922 -954788181 -38427087 689560665 36814927#0 648541444 665884210 234296720 234296718#0 41518097 591922929 36814928#0 367808660#0 367808660#1 838391221"/>
    </vehicle>
    <vehicle id="30" depart="30.00">
        <route edges="725187382 -234295188#1 -234295188#0 -197476980#5 -197476980#4 -197476980#3 -197476980#2 -197476980#0 -75687499#3 330341#1 330341#2 330341#3 75687497#1 316805865 109850071 109850046#0 109850046#1 109850046#2 648541444 665884210 234296720 234296718#0 41518097 591922929 36814928#0 1177426566#1 500001829#0 800305664#2 805321466 805321467 805321468 805321469 805321470 805321472 805321471 800305666#0 -800305666#0 -805321471 -805321472 -805321470"/>
    </vehicle>
    <vehicle id="31" depart="31.00">
        <route edges="304095757#0 -4256611 -968429191 -968429190 -385085394#1 975110688 1006875809 975110686 975110685 166364278 166364279#0 166364279#1 954782745#0 977103794 1416630852 954782744 954782766#1 975124085 827537927#0 827537927#1 1385456332 1390791580 827537929#0 1385456326 949246252 949246254#0 949246254#1 827537932 827537931#0 1006650875#0"/>
    </vehicle>
    <vehicle id="32" depart="32.00">
        <route edges="825289763 1232975552 1112581146 1112581147#0 1112581147#1 234575098 825184199 234575101 825184200 825518134 1232962022 825518135 -38060076 -746410873 1112581148 1112581149 1112581150 1232962018 1112581152 1112581151#0 1112581151#1 1112581151#2 746410869 379356920#0 379356920#1 207107597#0 207107597#1 207107597#2 380467034 1065258330 234572145 367808662 36814929 1065218273#0 1065218273#1 367808658 1065218272#1 43892835 1065218271 367808673 286754719 1145582373 43892837#1 43892837#2 299652848 7744558 201491584 825529982 501181888#0 825529976 648549848#0 648549848#1 648549848#2 1238203869#0 1238203869#1 1238203869#2 26072429#0 26072429#1 26072429#2 59374120#0 59374120#1 -8179128#5 -8179128#4 -8179128#3 -8179128#2 -8179128#1 35468693#1 119695445 119695444#0 119695444#2"/>
    </vehicle>
    <vehicle id="33" depart="33.00">
        <route edges="-49932204#1 -49932204#0 49932204#0 49932204#1 49932204#3 49932204#4 1068540423 888009900#0 888009900#2 1068540424 1006650875#0 1006650875#1 1006650874 1006870311 1460595033#0 156159278 608159138 608159133 17926247 1184092351#0 1184092351#1 1184092350 1246181910#0 166490813#0 166490813#1 1420246978 608159137 303994870 1420246979 3754158#1 3754158#2 3754158#3 3754158#4 3754158#5 3754158#6 4253829 -662534292#1 -662534292#0 4254008 662534293#0 662534293#1 3318926#0 -30575232#5 -30575232#3 30576515#0 30576515#1 30576515#2 330341#3 681004573#1 679330695#0 -4607885#2 -4607885#1 637034136#5 -4607834#1 -4607834#0 -558371517#0 -166483493#1 -166483493#0 -8491226#1 -16294720#0 4265040#0 4265040#1 4265040#2 4265040#3 4265040#4 -47009514#1 -47009514#0 -47048136#6"/>
    </vehicle>
    <vehicle id="34" depart="34.00">
        <route edges="201491583#0 201491583#1 201491583#2 201491583#3 201493132 1212624126 201491587 201491584 825529982 501181888#0 825529976 648549848#0 648549848#1 648549848#2 1238203869#0 1238203869#1 1238203869#2 26072429#0 26072429#1 26072429#2 59374120#0 59374120#1 -8179128#5 -8179128#4 -8179128#3 -8179128#2 -8179128#1 35468693#1 119695445 119695444#0 119695444#2 119695444#3 -53368577#1 -53368577#0"/>
    </vehicle>
    <vehicle id="35" depart="35.00">
        <route edges="234575101 825184200 825518134 1232962022 825518135 -38060076 -746410873 1112581148 1112581149 1112581150 1232962018 1112581152 1112581151#0 1112581151#1 1112581151#2 746410869 379356920#0 379356920#1 207107597#0 207107597#1 207107597#2 380467034 1065258330 234572145 367808662 1112596815 17279601#0 449113135#1 1112581153 41518099 1112581154 2509157 1101475691#0 1101475691#1 39028323 1101475690 648551913#0 648551913#1 1145582383 1145582384 665884209 234289724#0 234289724#1 234289724#3 1065218275#0 75687497#1 316805864 615648531#0 615648531#1 43872913 262591660 425548224#0 425548224#1 425548223 1065218277 286754711#0 286754711#1 286754711#2 1065218278 262591658#0 262591658#1 1068358104 1073693270#0 -1420246979 -303994870 -608159137 -1420246978 -166490813#1 -166490813#0 -1246181910#0 -1184092350 -1184092351#1 -1184092351#0 -17926247 -608159133 608159142 -156159278 -1460595033#0 -1006870311 -1006650874 -1006650875#1 -1006650875#0 -1068540424 -888009900#2 -888009900#0 -1068540423 -49932204#4 -49932204#3 -49932204#1 -49932204#0 -438313419 3087448 8032448"/>
    </vehicle>
    <vehicle id="36" depart="36.00">
        <route edges="99961287#2 99961287#3 99961287#4 99961287#6 99961287#7 47009514#0 47009514#1 1068477987#0 1068477987#1 1068477987#2 166482670#0 -725187383#1 -725187383#0 -725187386 -48379761 -281500653 -1484429130 -1484429144 -207807330#1 207807330#1 1484429144 1484429130"/>
    </vehicle>
    <vehicle id="37" depart="37.00">
        <route edges="-166585296#2 -166585296#1 166585296#1 166585296#2 166585296#3 166585296#4 17926244 -385085394#2 -385085394#1 -975110689 -827537922 -954788181 -38427087 689560665 36814927#0 648541444 665884210 234296720 234296718#0 41518097 591922929 591922928#1 1065218272#1 43892835 1065218271 367808673 286754719 1145582373 43892837#1 43892837#2 299652848 201491583#0 201491583#1 201491583#2 201491583#3 201493132 1212624126 -837464374 -564115127 -1237115246#1 -1237115246#0 -1237115247 -825529981#2 -825529981#1 -825529981#0 -1212624127 -825529978#1 -825529978#0 -1272910831 -5044805 -1256019036"/>
    </vehicle>
    <vehicle id="38" depart="38.00">
        <route edges="-224097266#0 -290055842#1 -290055842#0 -224097264#3 -224097264#2 -224097264#0 -807925585#2 -807925585#1 -807925585#0 -557519243#3 -557519243#2 -557519243#1 -557519243#0 -159483599#5 -159483599#2 2466941#1 2466941#3 2466941#4 2466941#5 2466941#6 2466941#7 2466941#8 2466941#10 2466941#11 2466941#12 2466941#13 47048136#2 47048136#3 47048136#4 47048136#5 47048136#6 47009514#0 47009514#1 1068477987#0 1068477987#1 1068477987#2 166482670#0 -725187383#1 -725187383#0 -725187386 -48379761 -281500653 -1484429130 -1484429144 -207807330#1 1484429128#1 1484429129 166482549 281500654#0 281500654#1"/>
    </vehicle>
    <vehicle id="39" depart="39.00">
        <route edges="495298305 495298306 303559642 1177427778 495298307 -17926243 1177427780 3100051 534676024#0 534676024#1 534676028 546461336 1177427782 546461337 84697865 741737876#0 166364279#0 166364279#1 954782745#0 977103794 1416630852 954782744 954782766#1 975124085 827537927#0 827537927#1 1385456332 1390791580 827537929#0 1385456326 949246252 949246254#0 949246254#1 827537932 827537931#0 -1068540424 -888009900#2 -888009900#0 -1068540423 1068540423"/>
    </vehicle>
    <vehicle id="40" depart="40.00">
        <route edges="-1462354001#0 99961287#2 99961287#3 99961287#4 99961287#6 99961287#7 -47048136#6 -47048136#5 -47048136#4 -47048136#3 -47048136#2 -2466941#13 -2466941#12 -2466941#11 -2466941#10 -2466941#8 -2466941#7 -2466941#6 -2466941#5 -2466941#4 -2466941#3 -2466941#1 1265029521 823982876 1265029522 837464369 835624889 564115147 564115131 835624890 5044806 1256019037 166369924 1272910643 837464375 1256019036 5044805 1272910831 17691742#2 848701512 959607649#0 959607649#1 959607649#2 959607649#3 1360105350 825532578 1065258322 681767532 1209454100 1209454099#1 851722555 807924990 1065258321#0 1065258321#1 807924986 1485870453 1485870451 681767536 681767533#0 -673733343#1 -673733343#0 -96885307 -206996916 -648541446#2 -648541446#1 -648541446#0 -1065258325 -1065258326#2 -1065258326#1 -971212677#1"/>
    </vehicle>
    <vehicle id="41" depart="41.00">