<?xml version="1.0" encoding="UTF-8"?>

<!-- generated on 2026-04-11 19:58:06.253509 by Eclipse SUMO randomTrips.py v1_25_0+0000-ac6c5a6752d
<configuration>
    <net-file value="2_ts2qs.net.xml"/>
    <output-trip-file value="2_ts2qs.trips.xml"/>
    <end value="500.0"/>
</configuration>
-->

<routes xmlns:xsi="http://www.w3.org/2001/XMLSchema-instance" xsi:noNamespaceSchemaLocation="http://sumo.dlr.de/xsd/routes_file.xsd">
    <trip id="0" depart="0.00" from="2876129#0" to="-109850082#2"/>
    <trip id="1" depart="1.00" from="-55337113#2" to="-4256304#1"/>
    <trip id="2" depart="2.00" from="4253993#1" to="32636450#0"/>
    <trip id="3" depart="3.00" from="7744565#2" to="-166585296#4"/>
    <trip id="4" depart="4.00" from="1065218273#0" to="-1184092351#0"/>
    <trip id="5" depart="5.00" from="-4253992#1" to="1453472282"/>
    <trip id="6" depart="6.00" from="30199824#0" to="184790487#0"/>
    <trip id="7" depart="7.00" from="513773776#1" to="-1044490000#2"/>
    <trip id="8" depart="8.00" from="500005090#1" to="36775557#0"/>
    <trip id="9" depart="9.00" from="-827537927#1" to="-30199425#1"/>
    <trip id="10" depart="10.00" from="871216779#1" to="-835624889"/>
    <trip id="11" depart="11.00" from="637034136#5" to="25803169#1"/>
    <trip id="12" depart="12.00" from="500005092#2" to="4253828#0"/>
    <trip id="13" depart="13.00" from="166364278" to="945034906#1"/>
    <trip id="14" depart="14.00" from="-913017011#2" to="197476980#3"/>
    <trip id="15" depart="15.00" from="673733343#0" to="234295188#0"/>
    <trip id="16" depart="16.00" from="367808673" to="-1250159685"/>
    <trip id="17" depart="17.00" from="-4256185#1" to="-648541446#2"/>
    <trip id="18" depart="18.00" from="-16292271#0" to="-438311806#1"/>
    <trip id="19" depart="19.00" from="-199513144#0" to="-59374120#3"/>
    <trip id="20" depart="20.00" from="28509883#5" to="-886364504"/>
    <trip id="21" depart="21.00" from="-500005090#1" to="835625840#5"/>
    <trip id="22" depart="22.00" from="30199424#0" to="26072429#2"/>
    <trip id="23" depart="23.00" from="-30199824#2" to="-968429191"/>
    <trip id="24" depart="24.00" from="975110686" to="2876892#2"/>
    <trip id="25" depart="25.00" from="197476980#4" to="33281860"/>
    <trip id="26" depart="26.00" from="6268144" to="4607839#3"/>
    <trip id="27" depart="27.00" from="-4256607" to="-119695444#0"/>
    <trip id="28" depart="28.00" from="-746410873" to="-557519243#0"/>
    <trip id="29" depart="29.00" from="-4253629#0" to="838391221"/>
    <trip id="30" depart="30.00" from="725187382" to="-805321470"/>
    <trip id="31" depart="31.00" from="304095757#0" to="1006650875#0"/>
    <trip id="32" depart="32.00" from="825289763" to="119695444#2"/>
    <trip id="33" depart="33.00" from="-49932204#1" to="-47048136#6"/>
    <trip id="34" depart="34.00" from="201491583#0" to="-53368577#0"/>
    <trip id="35" depart="35.00" from="234575101" to="8032448"/>
    <trip id="36" depart="36.00" from="99961287#2" to="1484429130"/>
    <trip id="37" depart="37.00" from="-166585296#2" to="-1256019036"/>
    <trip id="38" depart="38.00" from="-224097266#0" to="281500654#1"/>
    <trip id="39" depart="39.00" from="495298305" to="1068540423"/>
    <trip id="40" depart="40.00" from="-1462354001#0" to="-971212677#1"/>
    <trip id="41" depart="41.00" from="987343790#0" to="16295338#0"/>
    <trip id="42" depart="42.00" from="921539339" to="673733343#0"/>
    <trip id="43" depart="43.00" from="-1065201825" to="39901109#1"/>
    <trip id="44" depart="44.00" from="3284233#2" to="166490813#1"/>
    <trip id="45" depart="45.00" from="-500005090#1" to="2876892#4"/>
    <trip id="46" depart="46.00" from="-224097266#5" to="109850060"/>
    <trip id="47" depart="47.00" from="1112581154" to="848701512"/>
    <trip id="48" depart="48.00" from="1357659301#0" to="-32140003#1"/>
    <trip id="49" depart="49.00" from="825288053#0" to="687471330#1"/>
    <trip id="50" depart="50.00" from="-6578219#4" to="2876749#0"/>
    <trip id="51" depart="51.00" from="25803174#0" to="-290055842#1"/>
    <trip id="52" depart="52.00" from="438310842#0" to="17279601#0"/>
    <trip id="53" depart="53.00" from="4607839#4" to="16295373#0"/>
    <trip id="54" depart="54.00" from="-107017507" to="829856838"/>
    <trip id="55" depart="55.00" from="73058385#1" to="591922929"/>
    <trip id="56" depart="56.00" from="-691547352" to="-1420246979"/>
    <trip id="57" depart="57.00" from="725187386" to="8386793#0"/>
    <trip id="58" depart="58.00" from="-166364278" to="1274421064"/>
    <trip id="59" depart="59.00" from="1210470865#2" to="197476574"/>
    <trip id="60" depart="60.00" from="-49932204#1" to="691547352"/>
    <trip id="61" depart="61.00" from="1065218275#0" to="-4253828#0"/>
    <trip id="62" depart="62.00" from="166483493#0" to="4253828#0"/>
    <trip id="63" depart="63.00" from="-36834285#1" to="-802723462#0"/>
    <trip id="64" depart="64.00" from="980948850#2" to="30243097#0"/>
    <trip id="65" depart="65.00" from="1071583347" to="15690838#1"/>
    <trip id="66" depart="66.00" from="-23918410#0" to="-4256725#1"/>
    <trip id="67" depart="67.00" from="-4256725#3" to="-4255963#1"/>
    <trip id="68" depart="68.00" from="-155894306" to="28509883#2"/>
    <trip id="69" depart="69.00" from="-4256607" to="81430722#1"/>
    <trip id="70" depart="70.00" from="673447481#0" to="-15693515#3"/>
    <trip id="71" depart="71.00" from="-438310843#0" to="3097621#1"/>
    <trip id="72" depart="72.00" from="-4253730#4" to="-262591658#1"/>
    <trip id="73" depart="73.00" from="835625840#3" to="224097266#0"/>
    <trip id="74" depart="74.00" from="1210078301#1" to="48379498#1"/>
    <trip id="75" depart="75.00" from="500008116#0" to="-34294007#1"/>
    <trip id="76" depart="76.00" from="-190593885" to="108285811"/>
    <trip id="77" depart="77.00" from="1065218278" to="1210470864"/>
    <trip id="78" depart="78.00" from="4253707" to="3128349#3"/>
    <trip id="79" depart="79.00" from="959607649#2" to="-199776462#0"/>
    <trip id="80" depart="80.00" from="1006641961" to="-835625840#6"/>
    <trip id="81" depart="81.00" from="673447744#1" to="-48379506#2"/>
    <trip id="82" depart="82.00" from="-33232746#3" to="1124420598"/>
    <trip id="83" depart="83.00" from="1065218273#0" to="-59374120#4"/>
    <trip id="84" depart="84.00" from="-4607885#2" to="827537931#1"/>
    <trip id="85" depart="85.00" from="109850065" to="676598072"/>
    <trip id="86" depart="86.00" from="185238299#0" to="-1292466157"/>
    <trip id="87" depart="87.00" from="99961322#0" to="608159138"/>
    <trip id="88" depart="88.00" from="896810423" to="827537939#3"/>
    <trip id="89" depart="89.00" from="63972390#1" to="-306452424#1"/>
    <trip id="90" depart="90.00" from="1250159682" to="-4253992#1"/>
    <trip id="91" depart="91.00" from="-99961322#1" to="-1428814183"/>
    <trip id="92" depart="92.00" from="-929968173#1" to="959607649#3"/>
    <trip id="93" depart="93.00" from="-49932204#1" to="474189878"/>
    <trip id="94" depart="94.00" from="1114985043#0" to="107017507"/>
    <trip id="95" depart="95.00" from="871216779#1" to="980948850#2"/>
    <trip id="96" depart="96.00" from="197476980#0" to="385085394#1"/>
    <trip id="97" depart="97.00" from="-286754711#2" to="-67712520#3"/>
    <trip id="98" depart="98.00" from="89173833#0" to="234572145"/>
    <trip id="99" depart="99.00" from="166585296#3" to="4256146#1"/>
    <trip id="100" depart="100.00" from="-1340003587#1" to="238913756#0"/>
    <trip id="101" depart="101.00" from="1385456326" to="6578219#4"/>
    <trip id="102" depart="102.00" from="-290053779#1" to="882785553"/>
    <trip id="103" depart="103.00" from="-16292271#0" to="-33281572"/>
    <trip id="104" depart="104.00" from="2449400#2" to="32140003#1"/>
    <trip id="105" depart="105.00" from="-4300619#1" to="-2466941#4"/>
    <trip id="106" depart="106.00" from="75687499#3" to="-47048136#5"/>
    <trip id="107" depart="107.00" from="2449400#1" to="26839386#2"/>
    <trip id="108" depart="108.00" from="1065201826#0" to="238913649#5"/>
    <trip id="109" depart="109.00" from="15693515#1" to="835624890"/>
    <trip id="110" depart="110.00" from="-438310844#1" to="1006650875#0"/>
    <trip id="111" depart="111.00" from="3098816" to="-691547352"/>
    <trip id="112" depart="112.00" from="-75687499#3" to="4256839"/>
    <trip id="113" depart="113.00" from="-15690838#0" to="119695444#0"/>
    <trip id="114" depart="114.00" from="99961287#6" to="987343785#1"/>
    <trip id="115" depart="115.00" from="-15690838#2" to="-4253991#1"/>
    <trip id="116" depart="116.00" from="-49932204#1" to="835476530#0"/>
    <trip id="117" depart="117.00" from="737713206#0" to="737713205#0"/>
    <trip id="118" depart="118.00" from="-871216781" to="-30241013#3"/>
    <trip id="119" depart="119.00" from="59374120#0" to="36834285#2"/>
    <trip id="120" depart="120.00" from="2592183" to="969918602#0"/>
    <trip id="121" depart="121.00" from="55337113#1" to="-681004437#0"/>
    <trip id="122" depart="122.00" from="306452424#1" to="837464368#0"/>
    <trip id="123" depart="123.00" from="-534681954" to="25803174#1"/>
    <trip id="124" depart="124.00" from="380467036#1" to="-41224677#0"/>
    <trip id="125" depart="125.00" from="28509883#2" to="-534676024#0"/>
    <trip id="126" depart="126.00" from="1258463805#1" to="81430722#1"/>
    <trip id="127" depart="127.00" from="628403455#1" to="-189241670#0"/>
    <trip id="128" depart="128.00" from="1065218278" to="-591102908"/>
    <trip id="129" depart="129.00" from="-1006875809" to="449113135#1"/>
    <trip id="130" depart="130.00" from="286754711#2" to="-53368567#1"/>
    <trip id="131" depart="131.00" from="1068358101" to="-1065127946#0"/>
    <trip id="132" depart="132.00" from="-157467038" to="744427795"/>
    <trip id="133" depart="133.00" from="81430722#0" to="184790487#1"/>
    <trip id="134" depart="134.00" from="59374120#4" to="237413929#2"/>
    <trip id="135" depart="135.00" from="-724460083#0" to="805321468"/>
    <trip id="136" depart="136.00" from="49932193#1" to="673733343#0"/>
    <trip id="137" depart="137.00" from="-4607885#2" to="-215298798#2"/>
    <trip id="138" depart="138.00" from="4607885#2" to="746410865#1"/>
    <trip id="139" depart="139.00" from="-286754711#2" to="8347025#0"/>
    <trip id="140" depart="140.00" from="67712520#1" to="949246246"/>
    <trip id="141" depart="141.00" from="527084930#0" to="740846310#0"/>
    <trip id="142" depart="142.00" from="-822261403" to="8347028#0"/>
    <trip id="143" depart="143.00" from="49932204#4" to="67712520#2"/>
    <trip id="144" depart="144.00" from="527084930#0" to="-55337113#1"/>
    <trip id="145" depart="145.00" from="48379506#2" to="-234295188#0"/>
    <trip id="146" depart="146.00" from="687471330#1" to="673447481#2"/>
    <trip id="147" depart="147.00" from="-4254075#1" to="55337113#2"/>
    <trip id="148" depart="148.00" from="1177427778" to="-737713207#0"/>
    <trip id="149" depart="149.00" from="49932190#2" to="-4265040#1"/>
    <trip id="150" depart="150.00" from="-1096686679#0" to="-365198127"/>
    <trip id="151" depart="151.00" from="-809605060#0" to="67712520#3"/>
    <trip id="152" depart="152.00" from="888009900#2" to="-607098825"/>
    <trip id="153" depart="153.00" from="2876710#6" to="1007529695#1"/>
    <trip id="154" depart="154.00" from="954782754#1" to="166483493#1"/>
    <trip id="155" depart="155.00" from="913017011#1" to="-32140003#1"/>
    <trip id="156" depart="156.00" from="886267927#0" to="-546461336"/>
    <trip id="157" depart="157.00" from="-224093209" to="109850058"/>
    <trip id="158" depart="158.00" from="-954782741" to="234289724#1"/>
    <trip id="159" depart="159.00" from="-48379498#1" to="3754141#3"/>
    <trip id="160" depart="160.00" from="-1006650875#0" to="827537939#0"/>
    <trip id="161" depart="161.00" from="166482669" to="386356201#0"/>
    <trip id="162" depart="162.00" from="-84697865" to="-15693515#1"/>
    <trip id="163" depart="163.00" from="3076611#1" to="-827537932"/>
    <trip id="164" depart="164.00" from="-737713207#0" to="648541446#0"/>
    <trip id="165" depart="165.00" from="380467043" to="-724460083#0"/>
    <trip id="166" depart="166.00" from="-724836932" to="1065127945#0"/>
    <trip id="167" depart="167.00" from="1006641961" to="-67712520#0"/>
    <trip id="168" depart="168.00" from="-246902463#1" to="1068477987#0"/>
    <trip id="169" depart="169.00" from="837464390" to="32636450#2"/>
    <trip id="170" depart="170.00" from="809605060#0" to="26789063#2"/>
    <trip id="171" depart="171.00" from="-673447481#0" to="19207807#1"/>
    <trip id="172" depart="172.00" from="-10064542#0" to="-637034136#5"/>
    <trip id="173" depart="173.00" from="1068540424" to="234575101"/>
    <trip id="174" depart="174.00" from="109850060" to="-4253992#1"/>
    <trip id="175" depart="175.00" from="1210470862#0" to="806250821"/>
    <trip id="176" depart="176.00" from="49932192" to="-3087448"/>
    <trip id="177" depart="177.00" from="-16629512#2" to="155894306"/>
    <trip id="178" depart="178.00" from="2850776#5" to="-82965852#1"/>
    <trip id="179" depart="179.00" from="557519243#1" to="4256725#1"/>
    <trip id="180" depart="180.00" from="3127736#3" to="-4256725#1"/>
    <trip id="181" depart="181.00" from="-36775557#0" to="-109850082#0"/>
    <trip id="182" depart="182.00" from="-4592636" to="1237115246#1"/>
    <trip id="183" depart="183.00" from="648541446#0" to="-157547574#0"/>
    <trip id="184" depart="184.00" from="1044490000#3" to="28509865#2"/>
    <trip id="185" depart="185.00" from="-34293999#1" to="36775549#1"/>
    <trip id="186" depart="186.00" from="132318682#1" to="-47009514#1"/>
    <trip id="187" depart="187.00" from="304095757#1" to="-1024919682"/>
    <trip id="188" depart="188.00" from="4256147#0" to="4390227#0"/>
    <trip id="189" depart="189.00" from="-207807330#1" to="107017518#1"/>
    <trip id="190" depart="190.00" from="-3087448" to="871216779#0"/>
    <trip id="191" depart="191.00" from="-4607885#1" to="648541446#1"/>
    <trip id="192" depart="192.00" from="1132006544" to="49932204#0"/>
    <trip id="193" depart="193.00" from="3087449#2" to="969921759#1"/>
    <trip id="194" depart="194.00" from="2450764" to="8386794#2"/>
    <trip id="195" depart="195.00" from="7744564#1" to="2631518#0"/>
    <trip id="196" depart="196.00" from="380467042" to="1443526070"/>
    <trip id="197" depart="197.00" from="584351058" to="19207807#1"/>
    <trip id="198" depart="198.00" from="1210470865#1" to="-500005090#2"/>
    <trip id="199" depart="199.00" from="-4607839#3" to="2876710#2"/>
    <trip id="200" depart="200.00" from="438313906#2" to="157547574#0"/>
    <trip id="201" depart="201.00" from="27929741#3" to="-567941583"/>
    <trip id="202" depart="202.00" from="-157547574#2" to="-628403455#1"/>
    <trip id="203" depart="203.00" from="-534676024#1" to="-8179128#1"/>
    <trip id="204" depart="204.00" from="166490813#0" to="-27929741#1"/>
    <trip id="205" depart="205.00" from="-4259010#1" to="35468756#0"/>
    <trip id="206" depart="206.00" from="36834285#1" to="-1484429144"/>
    <trip id="207" depart="207.00" from="1007519988#0" to="17513387#1"/>
    <trip id="208" depart="208.00" from="1065201827" to="81430722#0"/>
    <trip id="209" depart="209.00" from="234575099" to="36775548"/>
    <trip id="210" depart="210.00" from="665884209" to="438319784#1"/>
    <trip id="211" depart="211.00" from="-949246245#0" to="-1024919682"/>
    <trip id="212" depart="212.00" from="-837464374" to="4265040#0"/>
    <trip id="213" depart="213.00" from="6578219#1" to="84697865"/>
    <trip id="214" depart="214.00" from="1065201826#0" to="4256091#2"/>
    <trip id="215" depart="215.00" from="17513386#0" to="25803169#0"/>
    <trip id="216" depart="216.00" from="1070366925#3" to="-1177427782"/>
    <trip id="217" depart="217.00" from="-825288053#4" to="3284233#2"/>
    <trip id="218" depart="218.00" from="1006650874" to="-306452416#2"/>
    <trip id="219" depart="219.00" from="26839386#0" to="-1136273233#0"/>
    <trip id="220" depart="220.00" from="-975124070" to="207107599#4"/>
    <trip id="221" depart="221.00" from="-1124420597" to="290055842#1"/>
    <trip id="222" depart="222.00" from="-26072428" to="119695446"/>
    <trip id="223" depart="223.00" from="-1256019036" to="-968429190"/>
    <trip id="224" depart="224.00" from="-4253629#2" to="-825529978#1"/>
    <trip id="225" depart="225.00" from="43573215#0" to="-968429190"/>
    <trip id="226" depart="226.00" from="4256185#1" to="59374120#0"/>
    <trip id="227" depart="227.00" from="-47048136#2" to="-166369924"/>
    <trip id="228" depart="228.00" from="99961322#1" to="-8386794#2"/>
    <trip id="229" depart="229.00" from="30199824#1" to="47009631#3"/>
    <trip id="230" depart="230.00" from="30241013#3" to="4265040#2"/>
    <trip id="231" depart="231.00" from="-107017509#1" to="-290055842#0"/>
    <trip id="232" depart="232.00" from="-246901382" to="3098816"/>
    <trip id="233" depart="233.00" from="206996916" to="-425548224#0"/>
    <trip id="234" depart="234.00" from="36775549#1" to="438321535#3"/>
    <trip id="235" depart="235.00" from="-30575232#3" to="2592183"/>
    <trip id="236" depart="236.00" from="4255963#2" to="-238913756#6"/>
    <trip id="237" depart="237.00" from="557694267#0" to="886364501#0"/>
    <trip id="238" depart="238.00" from="-224093209" to="-1124420597"/>
    <trip id="239" depart="239.00" from="-725187386" to="32636450#2"/>
    <trip id="240" depart="240.00" from="871216780" to="1006864589"/>
    <trip id="241" depart="241.00" from="37725870#1" to="-16292271#1"/>
    <trip id="242" depart="242.00" from="34018981#1" to="281500654#0"/>
    <trip id="243" depart="243.00" from="-199513265#2" to="4607834#0"/>
    <trip id="244" depart="244.00" from="648541446#1" to="25359276#6"/>
    <trip id="245" depart="245.00" from="-23918410#1" to="954788181"/>
    <trip id="246" depart="246.00" from="47048136#2" to="-8386793#1"/>
    <trip id="247" depart="247.00" from="1068477987#0" to="-948541271"/>
    <trip id="248" depart="248.00" from="141351326#0" to="-837464375"/>
    <trip id="249" depart="249.00" from="648541446#0" to="561132269#1"/>
    <trip id="250" depart="250.00" from="-207107599#2" to="882785553"/>
    <trip id="251" depart="251.00" from="28509883#5" to="584351058"/>
    <trip id="252" depart="252.00" from="3700585#0" to="109850065"/>
    <trip id="253" depart="253.00" from="4253828#1" to="886364501#3"/>
    <trip id="254" depart="254.00" from="-53368567#1" to="5044805"/>
    <trip id="255" depart="255.00" from="166482549" to="1265029521"/>
    <trip id="256" depart="256.00" from="1070366924#1" to="4253965"/>
    <trip id="257" depart="257.00" from="-513773775#2" to="6578208"/>
    <trip id="258" depart="258.00" from="587305628#0" to="-166585296#3"/>
    <trip id="259" depart="259.00" from="737713206#2" to="-47009514#0"/>
    <trip id="260" depart="260.00" from="1184095510" to="2631259"/>
    <trip id="261" depart="261.00" from="-929968173#1" to="-1177427780"/>
    <trip id="262" depart="262.00" from="648549848#0" to="-32636980#2"/>
    <trip id="263" depart="263.00" from="-827537931#0" to="737713206#1"/>
    <trip id="264" depart="264.00" from="36775557#0" to="-587305628#3"/>
    <trip id="265" depart="265.00" from="-166364278" to="39028323"/>
    <trip id="266" depart="266.00" from="1258463805#1" to="43309289#1"/>
    <trip id="267" depart="267.00" from="34018981#1" to="30073423"/>
    <trip id="268" depart="268.00" from="1272914620#1" to="495724025"/>
    <trip id="269" depart="269.00" from="-17513379#2" to="-4255963#5"/>
    <trip id="270" depart="270.00" from="34293999#1" to="-746410867"/>
    <trip id="271" depart="271.00" from="234295188#0" to="1232962021"/>
    <trip id="272" depart="272.00" from="16294198#2" to="107017518#1"/>
    <trip id="273" depart="273.00" from="-47009514#1" to="-2466941#6"/>
    <trip id="274" depart="274.00" from="-33779263#0" to="-2466941#3"/>
    <trip id="275" depart="275.00" from="166364166#0" to="438311804"/>
    <trip id="276" depart="276.00" from="-32140004" to="-4254008"/>
    <trip id="277" depart="277.00" from="949246252" to="16292271#0"/>
    <trip id="278" depart="278.00" from="-587305628#1" to="-207107599#1"/>
    <trip id="279" depart="279.00" from="-34293999#1" to="-4265040#1"/>
    <trip id="280" depart="280.00" from="-3097607#1" to="-1065258325"/>
    <trip id="281" depart="281.00" from="16295338#5" to="-567941583"/>
    <trip id="282" depart="282.00" from="681004436#0" to="1338576651#1"/>
    <trip id="283" depart="283.00" from="687471330#3" to="228016376#1"/>
    <trip id="284" depart="284.00" from="1197504736#0" to="1112581142"/>
    <trip id="285" depart="285.00" from="-32139530#0" to="-1302788072"/>
    <trip id="286" depart="286.00" from="838389343" to="1245947684"/>
    <trip id="287" depart="287.00" from="56062189#2" to="1020161274#1"/>
    <trip id="288" depart="288.00" from="-15693515#2" to="2850776#5"/>
    <trip id="289" depart="289.00" from="-1292466157" to="-286754711#1"/>
    <trip id="290" depart="290.00" from="201491584" to="-73058385#0"/>
    <trip id="291" depart="291.00" from="977103794" to="-2466941#11"/>
    <trip id="292" depart="292.00" from="4884668#5" to="-4256839"/>
    <trip id="293" depart="293.00" from="15690838#2" to="1145582373"/>
    <trip id="294" depart="294.00" from="109850061" to="673447744#1"/>
    <trip id="295" depart="295.00" from="975110688" to="-74167879"/>
    <trip id="296" depart="296.00" from="30576515#2" to="-30199824#4"/>
    <trip id="297" depart="297.00" from="-3076611#2" to="-160532844#2"/>
    <trip id="298" depart="298.00" from="-1006864589" to="1145582373"/>
    <trip id="299" depart="299.00" from="24303203" to="-6578219#5"/>
    <trip id="300" depart="300.00" from="-4265038" to="3754138#2"/>
    <trip id="301" depart="301.00" from="367808658" to="1177427781"/>
    <trip id="302" depart="302.00" from="33281709#0" to="827537932"/>
    <trip id="303" depart="303.00" from="485038830#0" to="27929812#2"/>
    <trip id="304" depart="304.00" from="306452416#0" to="835476530#1"/>
    <trip id="305" depart="305.00" from="1065258322" to="17926247"/>
    <trip id="306" depart="306.00" from="30078111" to="8179128#3"/>
    <trip id="307" depart="307.00" from="-304095757#1" to="-747155719#2"/>
    <trip id="308" depart="308.00" from="4255963#5" to="224093210#2"/>
    <trip id="309" depart="309.00" from="-61074713#2" to="-25359276#3"/>
    <trip id="310" depart="310.00" from="33608038#1" to="36776003"/>
    <trip id="311" depart="311.00" from="8386786#2" to="140463816"/>
    <trip id="312" depart="312.00" from="1311642633" to="-166364278"/>
    <trip id="313" depart="313.00" from="-1210470863#1" to="109850046#0"/>
    <trip id="314" depart="314.00" from="-803078902#1" to="-4884668#4"/>
    <trip id="315" depart="315.00" from="-166585296#3" to="884363125#0"/>
    <trip id="316" depart="316.00" from="605454356#1" to="23396293#0"/>
    <trip id="317" depart="317.00" from="8386795#1" to="99961287#7"/>
    <trip id="318" depart="318.00" from="3100051" to="-557694267#1"/>
    <trip id="319" depart="319.00" from="-1210470864" to="4288962"/>
    <trip id="320" depart="320.00" from="1200972814" to="303559642"/>
    <trip id="321" depart="321.00" from="825529976" to="-32636980#0"/>
    <trip id="322" depart="322.00" from="236881840#1" to="286754715#1"/>
    <trip id="323" depart="323.00" from="1292466157" to="-188128548#2"/>
    <trip id="324" depart="324.00" from="-835625840#0" to="-827537939#3"/>
    <trip id="325" depart="325.00" from="3097607#1" to="673441932"/>
    <trip id="326" depart="326.00" from="-81430731" to="35468693#1"/>
    <trip id="327" depart="327.00" from="-61074713#1" to="8386786#4"/>
    <trip id="328" depart="328.00" from="1114985043#0" to="-805321470"/>
    <trip id="329" depart="329.00" from="-8032448" to="906846476#1"/>
    <trip id="330" depart="330.00" from="1006650874" to="155724660#0"/>
    <trip id="331" depart="331.00" from="971212677#0" to="30576515#1"/>
    <trip id="332" depart="332.00" from="166585296#4" to="1065218271"/>
    <trip id="333" depart="333.00" from="-32636980#2" to="-886266729"/>
    <trip id="334" depart="334.00" from="4259010#1" to="2793132"/>
    <trip id="335" depart="335.00" from="4324189" to="-41224677#0"/>
    <trip id="336" depart="336.00" from="17926247" to="827537942"/>
    <trip id="337" depart="337.00" from="1073693270#0" to="36775557#1"/>
    <trip id="338" depart="338.00" from="-2450764" to="945034906#1"/>
    <trip id="339" depart="339.00" from="25803174#0" to="-4607834#0"/>
    <trip id="340" depart="340.00" from="190593885" to="-19207807#1"/>
    <trip id="341" depart="341.00" from="975124076" to="825288048"/>
    <trip id="342" depart="342.00" from="1177427781" to="-2466941#1"/>
    <trip id="343" depart="343.00" from="587305628#3" to="1385456332"/>
    <trip id="344" depart="344.00" from="379485583" to="1484429128#1"/>
    <trip id="345" depart="345.00" from="-546461337" to="607098825"/>
    <trip id="346" depart="346.00" from="954782744" to="-47009514#0"/>
    <trip id="347" depart="347.00" from="188128548#3" to="-975110689"/>
    <trip id="348" depart="348.00" from="827537931#1" to="1462432302#1"/>
    <trip id="349" depart="349.00" from="73427436#1" to="67712520#2"/>
    <trip id="350" depart="350.00" from="-557519243#3" to="4884668#7"/>
    <trip id="351" depart="351.00" from="1060274256" to="835624889"/>
    <trip id="352" depart="352.00" from="-587305628#0" to="-681004436#0"/>
    <trip id="353" depart="353.00" from="237396922" to="99961287#6"/>
    <trip id="354" depart="354.00" from="1272910643" to="-286754711#0"/>
    <trip id="355" depart="355.00" from="166482669" to="-8386786#4"/>
    <trip id="356" depart="356.00" from="189241670#0" to="17926243"/>
    <trip id="357" depart="357.00" from="-3284233#3" to="36775550#2"/>
    <trip id="358" depart="358.00" from="222518282#0" to="-438313906#1"/>
    <trip id="359" depart="359.00" from="4607836#1" to="-1237115247"/>
    <trip id="360" depart="360.00" from="425548223" to="3700585#2"/>
    <trip id="361" depart="361.00" from="53368567#0" to="-975124085"/>
    <trip id="362" depart="362.00" from="954782751#1" to="1357659301#1"/>
    <trip id="363" depart="363.00" from="-1197504736#0" to="1420246979"/>
    <trip id="364" depart="364.00" from="238913756#6" to="681767536"/>
    <trip id="365" depart="365.00" from="691547351" to="1112581142"/>
    <trip id="366" depart="366.00" from="157547574#0" to="1184095509"/>
    <trip id="367" depart="367.00" from="386356201#0" to="1065201823"/>
    <trip id="368" depart="368.00" from="1197504736#0" to="88966884#0"/>
    <trip id="369" depart="369.00" from="-825529981#1" to="35468477#1"/>
    <trip id="370" depart="370.00" from="30199824#0" to="6578208"/>
    <trip id="371" depart="371.00" from="648551913#1" to="673447483#1"/>
    <trip id="372" depart="372.00" from="-948541270" to="-807925585#0"/>
    <trip id="373" depart="373.00" from="380467041" to="43573215#0"/>
    <trip id="374" depart="374.00" from="687471330#2" to="-1200972814"/>
    <trip id="375" depart="375.00" from="-151469109#1" to="28509883#2"/>
    <trip id="376" depart="376.00" from="827537930#0" to="99961287#1"/>
    <trip id="377" depart="377.00" from="4255960" to="109850055#0"/>
    <trip id="378" depart="378.00" from="-197476948#0" to="286754711#1"/>
    <trip id="379" depart="379.00" from="687471330#2" to="1112581150"/>
    <trip id="380" depart="380.00" from="34294007#4" to="807925585#2"/>
    <trip id="381" depart="381.00" from="-1240930662" to="49932192"/>
    <trip id="382" depart="382.00" from="-628403455#1" to="-954648754#0"/>
    <trip id="383" depart="383.00" from="-27929812#2" to="16629512#1"/>
    <trip id="384" depart="384.00" from="207107597#0" to="495298307"/>
    <trip id="385" depart="385.00" from="-30583367#1" to="-16295373#0"/>
    <trip id="386" depart="386.00" from="681767533#0" to="26944030#0"/>
    <trip id="387" depart="387.00" from="-438313906#3" to="825288045"/>
    <trip id="388" depart="388.00" from="-27929741#2" to="119695445"/>
    <trip id="389" depart="389.00" from="-47048136#6" to="-49932201#1"/>
    <trip id="390" depart="390.00" from="807924990" to="32636450#2"/>
    <trip id="391" depart="391.00" from="-290055842#1" to="1112581146"/>
    <trip id="392" depart="392.00" from="2876128#2" to="107017509#2"/>
    <trip id="393" depart="393.00" from="-4607886" to="637034136#4"/>
    <trip id="394" depart="394.00" from="-36775557#1" to="-975124070"/>
    <trip id="395" depart="395.00" from="1238203869#1" to="-43872913"/>
    <trip id="396" depart="396.00" from="222518282#0" to="23235776#1"/>
    <trip id="397" depart="397.00" from="975124080" to="-67712518"/>
    <trip id="398" depart="398.00" from="95129805#1" to="30576515#2"/>
    <trip id="399" depart="399.00" from="-55337113#1" to="207117510#0"/>
    <trip id="400" depart="400.00" from="33232746#3" to="4255960"/>
    <trip id="401" depart="401.00" from="-1250159685" to="2592182#0"/>
    <trip id="402" depart="402.00" from="1340319168" to="809605060#1"/>
    <trip id="403" depart="403.00" from="-605454356#1" to="49932197#0"/>
    <trip id="404" depart="404.00" from="32140004" to="39901109#1"/>
    <trip id="405" depart="405.00" from="30575232#5" to="615648531#1"/>
    <trip id="406" depart="406.00" from="27929812#1" to="807925585#2"/>
    <trip id="407" depart="407.00" from="2953567#0" to="-7846317"/>
    <trip id="408" depart="408.00" from="109850052" to="234575098"/>
    <trip id="409" depart="409.00" from="-63972390#1" to="4256091#2"/>
    <trip id="410" depart="410.00" from="-3087448" to="-262591658#1"/>
    <trip id="411" depart="411.00" from="584351058" to="-49932204#4"/>
    <trip id="412" depart="412.00" from="561132269#3" to="1255812272"/>
    <trip id="413" depart="413.00" from="500005091" to="4255963#4"/>
    <trip id="414" depart="414.00" from="886267927#1" to="-27929812#2"/>