<?xml version="1.0" encoding="UTF-8"?>

<!-- generated on 2026-04-11 15:10:23 by Eclipse SUMO netedit Version 1.24.0
<neteditConfiguration xmlns:xsi="http://www.w3.org/2001/XMLSchema-instance" xsi:noNamespaceSchemaLocation="http://sumo.dlr.de/xsd/neteditConfiguration.xsd">

    <input>
        <sumocfg-file value="C:\Users\miwsl.DELL-XPS\SUMO\Greenwich Map\greenwich.sumocfg"/>
        <sumo-net-file value="C:\Users\miwsl.DELL-XPS\SUMO\Greenwich Map\greenwich.net.xml"/>
    </input>

    <output>
        <output-file value="C:\Users\miwsl.DELL-XPS\SUMO\Greenwich Map\greenwich.net.xml"/>
        <output.street-names value="true"/>
    </output>

    <processing>
        <geometry.min-radius.fix.railways value="false"/>
        <geometry.avoid-overlap value="false"/>
        <geometry.max-grade.fix value="false"/>
        <offset.disable-normalization value="true"/>
        <lefthand value="1"/>
    </processing>

    <junctions>
        <no-turnarounds value="true"/>
        <junctions.corner-detail value="5"/>
        <junctions.limit-turn-speed value="5.50"/>
        <rectangular-lane-cut value="0"/>
    </junctions>

    <pedestrian>
        <walkingareas value="0"/>
    </pedestrian>

    <netedit>
        <ignore.routeelements value="false"/>
    </netedit>

</neteditConfiguration>
-->

<net version="1.20" junctionCornerDetail="5" lefthand="true" limitTurnSpeed="5.50" avoidOverlap="0" xmlns:xsi="http://www.w3.org/2001/XMLSchema-instance" xsi:noNamespaceSchemaLocation="http://sumo.dlr.de/xsd/net_file.xsd">

    <location netOffset="-706811.21,-5706794.21" convBoundary="0.00,0.00,1522.70,1418.04" origBoundary="-0.022282,51.474320,0.000115,51.486892" projParameter="+proj=utm +zone=30 +ellps=WGS84 +datum=WGS84 +units=m +no_defs"/>

    <type id="highway.cycleway" priority="1" numLanes="1" speed="5.56" allow="bicycle" oneway="0" width="2.00"/>
    <type id="highway.footway" priority="1" numLanes="1" speed="2.78" allow="pedestrian" oneway="1" width="2.00"/>
    <type id="highway.pedestrian" priority="1" numLanes="1" speed="2.78" allow="pedestrian" oneway="1" width="2.00"/>
    <type id="highway.primary" priority="12" numLanes="2" speed="27.78" disallow="tram rail_urban rail rail_electric rail_fast ship container cable_car subway aircraft wheelchair scooter drone" oneway="0"/>
    <type id="highway.residential" priority="3" numLanes="1" speed="13.89" disallow="tram rail_urban rail rail_electric rail_fast ship container cable_car subway aircraft wheelchair scooter drone" oneway="0"/>
    <type id="highway.secondary" priority="11" numLanes="1" speed="27.78" disallow="tram rail_urban rail rail_electric rail_fast ship container cable_car subway aircraft wheelchair scooter drone" oneway="0"/>
    <type id="highway.service" priority="1" numLanes="1" speed="5.56" allow="pedestrian delivery bicycle" oneway="0"/>
    <type id="highway.steps" priority="1" numLanes="1" speed="1.39" allow="pedestrian" oneway="1" width="2.00"/>
    <type id="highway.unclassified" priority="4" numLanes="1" speed="13.89" disallow="tram rail_urban rail rail_electric rail_fast ship container cable_car subway aircraft wheelchair scooter drone" oneway="0"/>
    <type id="railway.light_rail" priority="19" numLanes="1" speed="27.78" allow="rail_urban" oneway="1"/>

    <edge id=":10027667805_0" function="internal">
        <lane id=":10027667805_0_0" index="0" allow="pedestrian delivery bicycle" speed="3.65" length="4.67" shape="608.03,303.80 606.64,304.21 606.02,304.85 606.17,305.74 607.07,306.86"/>
    </edge>
    <edge id=":10031350958_0" function="internal">
        <lane id=":10031350958_0_0" index="0" allow="pedestrian bicycle" speed="5.56" length="5.00" width="2.00" shape="923.00,1037.24 918.71,1034.69"/>
    </edge>
    <edge id=":10031350958_1" function="internal">
        <lane id=":10031350958_1_0" index="0" allow="pedestrian bicycle" speed="2.89" length="2.39" width="2.00" shape="923.00,1037.24 922.10,1037.29 921.63,1037.59 921.59,1038.15 921.75,1038.48"/>
    </edge>
    <edge id=":10031350958_4" function="internal">
        <lane id=":10031350958_4_0" index="0" allow="pedestrian bicycle" speed="2.89" length="0.53" width="2.00" shape="921.75,1038.48 921.98,1038.96"/>
    </edge>
    <edge id=":10031350958_2" function="internal">
        <lane id=":10031350958_2_0" index="0" allow="pedestrian bicycle" speed="5.56" length="5.00" width="2.00" shape="917.69,1036.40 921.98,1038.96"/>
    </edge>
    <edge id=":10031350958_3" function="internal">
        <lane id=":10031350958_3_0" index="0" allow="pedestrian bicycle" speed="2.89" length="2.39" width="2.00" shape="917.69,1036.40 918.59,1036.36 919.06,1036.06 919.10,1035.50 918.94,1035.17"/>
    </edge>
    <edge id=":10031350958_5" function="internal">
        <lane id=":10031350958_5_0" index="0" allow="pedestrian bicycle" speed="2.89" length="0.53" width="2.00" shape="918.94,1035.17 918.71,1034.69"/>
    </edge>
    <edge id=":10039776124_0" function="internal">
        <lane id=":10039776124_0_0" index="0" allow="pedestrian delivery bicycle" speed="5.56" length="5.00" shape="788.60,695.12 788.08,700.10"/>
    </edge>
    <edge id=":10039776124_1" function="internal">
        <lane id=":10039776124_1_0" index="0" allow="pedestrian delivery bicycle" speed="3.65" length="1.44" shape="788.60,695.12 789.27,696.40"/>
    </edge>
    <edge id=":10039776124_4" function="internal">
        <lane id=":10039776124_4_0" index="0" allow="pedestrian delivery bicycle" speed="3.65" length="3.23" shape="789.27,696.40 790.02,696.88 790.86,696.57 791.78,695.46"/>
    </edge>
    <edge id=":10039776124_2" function="internal">
        <lane id=":10039776124_2_0" index="0" allow="pedestrian delivery bicycle" speed="5.56" length="5.00" shape="791.26,700.43 791.78,695.46"/>
    </edge>
    <edge id=":10039776124_3" function="internal">
        <lane id=":10039776124_3_0" index="0" allow="pedestrian delivery bicycle" speed="3.65" length="1.44" shape="791.26,700.43 790.59,699.15"/>
    </edge>
    <edge id=":10039776124_5" function="internal">
        <lane id=":10039776124_5_0" index="0" allow="pedestrian delivery bicycle" speed="3.65" length="3.23" shape="790.59,699.15 789.84,698.67 789.00,698.99 788.08,700.10"/>
    </edge>
    <edge id=":10048152473_0" function="internal">
        <lane id=":10048152473_0_0" index="0" allow="pedestrian delivery bicycle" speed="3.65" length="4.67" shape="961.34,656.31 961.38,657.76 961.84,658.52 962.73,658.61 964.05,658.02"/>
    </edge>
    <edge id=":10049892425_0" function="internal">
        <lane id=":10049892425_0_0" index="0" allow="pedestrian bicycle" speed="2.89" length="2.92" width="2.00" shape="229.72,822.51 229.07,823.13 228.90,823.67 229.24,824.12 230.06,824.49"/>
    </edge>
    <edge id=":10080230710_0" function="internal">
        <lane id=":10080230710_0_0" index="0" allow="pedestrian delivery bicycle" speed="5.56" length="0.10" shape="738.60,430.76 738.60,430.76"/>
    </edge>
    <edge id=":10080230710_1" function="internal">
        <lane id=":10080230710_1_0" index="0" allow="pedestrian delivery bicycle" speed="5.56" length="0.10" shape="740.90,433.00 740.90,433.00"/>
    </edge>
    <edge id=":10080230711_0" function="internal">
        <lane id=":10080230711_0_0" index="0" allow="pedestrian delivery bicycle" speed="5.56" length="0.30" shape="749.85,419.23 749.64,419.44"/>
    </edge>
    <edge id=":10080230711_1" function="internal">
        <lane id=":10080230711_1_0" index="0" allow="pedestrian delivery bicycle" speed="5.56" length="0.30" shape="751.93,421.67 752.14,421.46"/>
    </edge>
    <edge id=":10080230712_0" function="internal">
        <lane id=":10080230712_0_0" index="0" allow="pedestrian delivery bicycle" speed="3.65" length="4.67" shape="726.84,442.83 726.58,444.25 726.87,445.10 727.73,445.37 729.14,445.07"/>
    </edge>
    <edge id=":10101482946_0" function="internal">
        <lane id=":10101482946_0_0" index="0" disallow="tram rail_urban rail rail_electric rail_fast ship container cable_car subway aircraft wheelchair scooter drone" speed="8.94" length="0.21" shape="537.98,766.62 537.96,766.68 537.95,766.72 537.94,766.76 537.93,766.82"/>
    </edge>
    <edge id=":10101482966_0" function="internal">
        <lane id=":10101482966_0_0" index="0" allow="pedestrian delivery bicycle" speed="3.65" length="4.67" shape="492.15,748.83 492.57,750.21 493.22,750.82 494.10,750.67 495.21,749.75"/>
    </edge>
    <edge id=":10101482969_0" function="internal">
        <lane id=":10101482969_0_0" index="0" allow="pedestrian delivery bicycle" speed="3.65" length="4.67" shape="447.02,745.14 448.41,744.75 449.03,744.11 448.90,743.22 448.00,742.10"/>
    </edge>
    <edge id=":10101482972_0" function="internal">
        <lane id=":10101482972_0_0" index="0" allow="pedestrian delivery bicycle" speed="6.07" length="8.24" shape="434.89,712.89 432.63,712.53 430.86,713.00 429.57,714.31 428.77,716.45"/>
    </edge>
    <edge id=":10101482972_1" function="internal">
        <lane id=":10101482972_1_0" index="0" allow="pedestrian delivery bicycle" speed="3.90" length="2.75" shape="431.90,717.13 432.16,716.42 432.59,715.98 433.18,715.82 433.94,715.95"/>
    </edge>
    <edge id=":10101482972_2" function="internal">
        <lane id=":10101482972_2_0" index="0" allow="pedestrian delivery bicycle" speed="3.65" length="4.67" shape="431.90,717.13 431.37,715.79 430.68,715.23 429.81,715.45 428.77,716.45"/>
    </edge>
    <edge id=":10108781015_0" function="internal">
        <lane id=":10108781015_0_0" index="0" allow="pedestrian delivery bicycle" speed="3.65" length="4.67" shape="1023.63,413.43 1023.41,414.86 1023.73,415.69 1024.59,415.94 1025.99,415.59"/>
    </edge>
    <edge id=":10109892784_0" function="internal">
        <lane id=":10109892784_0_0" index="0" allow="pedestrian delivery bicycle" speed="3.65" length="4.67" shape="780.61,364.73 780.64,363.29 780.22,362.50 779.33,362.37 777.99,362.89"/>
    </edge>
    <edge id=":10110159278_0" function="internal">
        <lane id=":10110159278_0_0" index="0" allow="pedestrian delivery bicycle" speed="5.56" length="5.24" shape="869.48,896.59 867.42,901.41"/>
    </edge>
    <edge id=":10110159278_1" function="internal">
        <lane id=":10110159278_1_0" index="0" allow="pedestrian delivery bicycle" speed="3.65" length="1.44" shape="869.48,896.59 869.74,898.01"/>
    </edge>
    <edge id=":10110159278_4" function="internal">
        <lane id=":10110159278_4_0" index="0" allow="pedestrian delivery bicycle" speed="3.65" length="3.23" shape="869.74,898.01 870.32,898.69 871.22,898.64 872.42,897.85"/>
    </edge>
    <edge id=":10110159278_2" function="internal">
        <lane id=":10110159278_2_0" index="0" allow="pedestrian delivery bicycle" speed="5.56" length="5.24" shape="870.36,902.67 872.42,897.85"/>
    </edge>
    <edge id=":10110159278_3" function="internal">
        <lane id=":10110159278_3_0" index="0" allow="pedestrian delivery bicycle" speed="3.65" length="1.44" shape="870.36,902.67 870.09,901.25"/>
    </edge>
    <edge id=":10110159278_5" function="internal">
        <lane id=":10110159278_5_0" index="0" allow="pedestrian delivery bicycle" speed="3.65" length="3.23" shape="870.09,901.25 869.52,900.57 868.62,900.62 867.42,901.41"/>
    </edge>
    <edge id=":10110177492_0" function="internal">
        <lane id=":10110177492_0_0" index="0" allow="pedestrian delivery bicycle" speed="5.56" length="5.07" shape="589.37,413.22 594.14,414.94"/>
    </edge>
    <edge id=":10110177511_0" function="internal">
        <lane id=":10110177511_0_0" index="0" allow="pedestrian delivery bicycle" speed="5.56" length="5.32" shape="570.63,390.15 570.08,391.63 569.74,392.65 569.48,393.71 569.17,395.25"/>
    </edge>
    <edge id=":10110177512_0" function="internal">
        <lane id=":10110177512_0_0" index="0" allow="pedestrian delivery bicycle" speed="5.56" length="5.17" shape="607.18,409.48 607.92,408.14 608.35,407.18 608.72,406.20 609.28,404.76"/>
    </edge>
    <edge id=":10110216619_0" function="internal">
        <lane id=":10110216619_0_0" index="0" allow="pedestrian delivery bicycle" speed="5.56" length="7.75" shape="813.54,482.97 812.17,484.59 811.65,486.26 811.97,487.98 813.15,489.75"/>
    </edge>
    <edge id=":10110216619_1" function="internal">
        <lane id=":10110216619_1_0" index="0" allow="pedestrian delivery bicycle" speed="3.90" length="2.58" shape="815.53,487.62 815.14,487.03 815.04,486.45 815.21,485.90 815.67,485.36"/>
    </edge>
    <edge id=":10110216620_0" function="internal">
        <lane id=":10110216620_0_0" index="0" allow="pedestrian delivery bicycle" speed="3.65" length="4.67" shape="823.12,500.93 824.51,501.30 825.37,501.06 825.71,500.23 825.50,498.81"/>
    </edge>
    <edge id=":10133875401_0" function="internal">
        <lane id=":10133875401_0_0" index="0" allow="pedestrian delivery bicycle" speed="3.65" length="4.67" shape="761.24,762.84 762.64,762.48 763.28,761.86 763.17,760.97 762.30,759.82"/>
    </edge>
    <edge id=":10133875403_0" function="internal">
        <lane id=":10133875403_0_0" index="0" allow="pedestrian delivery bicycle" speed="5.17" length="5.16" shape="751.33,771.96 750.67,773.26 749.78,774.06 748.67,774.36 747.33,774.16"/>
    </edge>
    <edge id=":10133875403_1" function="internal">
        <lane id=":10133875403_1_0" index="0" allow="pedestrian delivery bicycle" speed="6.84" length="10.35" shape="751.33,771.96 750.77,774.76 751.26,777.04 752.78,778.79 755.35,780.02"/>
    </edge>
    <edge id=":10133875403_2" function="internal">
        <lane id=":10133875403_2_0" index="0" allow="pedestrian delivery bicycle" speed="3.65" length="4.67" shape="751.33,771.96 751.68,773.36 752.30,774.00 753.19,773.90 754.34,773.04"/>
    </edge>
    <edge id=":10133875403_3" function="internal">
        <lane id=":10133875403_3_0" index="0" allow="pedestrian delivery bicycle" speed="5.01" length="5.05" shape="756.30,776.97 755.05,776.37 754.31,775.51 754.07,774.40 754.34,773.04"/>
    </edge>
    <edge id=":10133875403_4" function="internal">
        <lane id=":10133875403_4_0" index="0" disallow="tram rail_urban rail rail_electric rail_fast ship container cable_car subway aircraft wheelchair scooter drone" speed="8.94" length="9.40" shape="756.30,776.97 747.33,774.16"/>
    </edge>
    <edge id=":10133875403_5" function="internal">
        <lane id=":10133875403_5_0" index="0" disallow="tram rail_urban rail rail_electric rail_fast ship container cable_car subway aircraft wheelchair scooter drone" speed="8.94" length="9.40" shape="746.38,777.21 755.35,780.02"/>
    </edge>
    <edge id=":10133875403_6" function="internal">
        <lane id=":10133875403_6_0" index="0" allow="pedestrian delivery bicycle" speed="6.96" length="3.19" shape="746.38,777.21 749.07,777.64 749.52,777.53"/>
    </edge>
    <edge id=":10133875403_7" function="internal">
        <lane id=":10133875403_7_0" index="0" allow="pedestrian delivery bicycle" speed="6.96" length="6.99" shape="749.52,777.53 751.29,777.08 753.05,775.55 754.34,773.04"/>
    </edge>
    <edge id=":10144946092_0" function="internal">
        <lane id=":10144946092_0_0" index="0" disallow="tram rail_urban rail rail_electric rail_fast ship container cable_car subway aircraft wheelchair scooter drone" speed="13.89" length="5.67" shape="941.85,600.79 947.10,602.95"/>
    </edge>
    <edge id=":10144946100_0" function="internal">
        <lane id=":10144946100_0_0" index="0" disallow="tram rail_urban rail rail_electric rail_fast ship container cable_car subway aircraft wheelchair scooter drone" speed="13.89" length="5.01" shape="997.63,623.72 1002.17,625.85"/>
    </edge>
    <edge id=":10222140639_0" function="internal">
        <lane id=":10222140639_0_0" index="0" disallow="tram rail_urban rail rail_electric rail_fast ship container cable_car subway aircraft wheelchair scooter drone" speed="8.94" length="5.01" shape="610.91,768.48 605.91,768.59"/>
    </edge>
    <edge id=":10222140683_0" function="internal">
        <lane id=":10222140683_0_0" index="0" disallow="tram rail_urban rail rail_electric rail_fast ship container cable_car subway aircraft wheelchair scooter drone" speed="8.94" length="5.18" shape="478.71,765.31 473.69,764.02"/>
    </edge>
    <edge id=":10222140683_1" function="internal">
        <lane id=":10222140683_1_0" index="0" disallow="tram rail_urban rail rail_electric rail_fast ship container cable_car subway aircraft wheelchair scooter drone" speed="8.94" length="5.12" shape="472.93,767.13 477.88,768.40"/>
    </edge>
    <edge id=":10222140696_0" function="internal">
        <lane id=":10222140696_0_0" index="0" disallow="tram rail_urban rail rail_electric rail_fast ship container cable_car subway aircraft wheelchair scooter drone" speed="8.94" length="5.08" shape="524.17,776.63 519.11,776.32"/>
    </edge>
    <edge id=":10222140707_0" function="internal">
        <lane id=":10222140707_0_0" index="0" disallow="tram rail_urban rail rail_electric rail_fast ship container cable_car subway aircraft wheelchair scooter drone" speed="8.94" length="5.01" shape="548.36,775.94 543.36,776.36"/>
    </edge>
    <edge id=":10244510887_0" function="internal">
        <lane id=":10244510887_0_0" index="0" allow="pedestrian delivery bicycle" speed="5.56" length="1.33" shape="341.91,875.15 342.22,876.44"/>
    </edge>
    <edge id=":10244510887_1" function="internal">
        <lane id=":10244510887_1_0" index="0" allow="pedestrian delivery bicycle" speed="5.56" length="1.03" shape="339.12,877.22 338.89,876.21"/>
    </edge>
    <edge id=":10272016973_0" function="internal">
        <lane id=":10272016973_0_0" index="0" allow="pedestrian delivery bicycle" speed="5.56" length="2.98" shape="519.49,292.62 516.55,292.15"/>
    </edge>
    <edge id=":10272016973_1" function="internal">
        <lane id=":10272016973_1_0" index="0" allow="pedestrian delivery bicycle" speed="3.65" length="1.44" shape="519.49,292.62 518.18,293.22"/>
    </edge>
    <edge id=":10272016973_4" function="internal">
        <lane id=":10272016973_4_0" index="0" allow="pedestrian delivery bicycle" speed="3.65" length="3.23" shape="518.18,293.22 517.66,293.95 517.93,294.80 518.99,295.78"/>
    </edge>
    <edge id=":10272016973_2" function="internal">
        <lane id=":10272016973_2_0" index="0" allow="pedestrian delivery bicycle" speed="5.56" length="2.99" shape="516.03,295.31 518.99,295.78"/>
    </edge>
    <edge id=":10272016973_3" function="internal">
        <lane id=":10272016973_3_0" index="0" allow="pedestrian delivery bicycle" speed="3.65" length="1.44" shape="516.03,295.31 517.35,294.71"/>
    </edge>
    <edge id=":10272016973_5" function="internal">
        <lane id=":10272016973_5_0" index="0" allow="pedestrian delivery bicycle" speed="3.65" length="3.23" shape="517.35,294.71 517.87,293.99 517.60,293.13 516.55,292.15"/>
    </edge>
    <edge id=":104362_0" function="internal">
        <lane id=":104362_0_0" index="0" allow="pedestrian bicycle" speed="2.89" length="2.92" width="2.00" shape="822.73,1035.59 821.85,1035.82 821.45,1036.21 821.53,1036.76 822.07,1037.48"/>
    </edge>
    <edge id=":104363_0" function="internal">
        <lane id=":104363_0_0" index="0" allow="pedestrian delivery bicycle" speed="7.25" length="7.52" shape="872.91,896.62 873.91,894.75 875.11,893.81 876.54,893.02 878.25,891.57"/>
    </edge>
    <edge id=":104363_1" function="internal">
        <lane id=":104363_1_0" index="0" allow="pedestrian delivery bicycle" speed="6.07" length="6.57" shape="866.14,890.69 868.07,892.00 869.34,893.24 869.95,894.43 869.89,895.56"/>
    </edge>
    <edge id=":104363_2" function="internal">
        <lane id=":104363_2_0" index="0" disallow="tram rail_urban rail rail_electric rail_fast ship container cable_car subway aircraft wheelchair scooter drone" speed="7.90" length="10.66" shape="866.14,890.69 868.89,891.80 871.56,891.82 874.13,890.76 876.60,888.61"/>
        <lane id=":104363_2_1" index="1" disallow="tram rail_urban rail rail_electric rail_fast ship container cable_car subway aircraft wheelchair scooter drone" speed="7.23" length="10.66" shape="866.30,887.07 868.65,888.05 870.87,888.14 872.98,887.34 874.96,885.65"/>
    </edge>
    <edge id=":10560532331_0" function="internal">
        <lane id=":10560532331_0_0" index="0" allow="pedestrian delivery bicycle" speed="3.65" length="4.67" shape="1033.48,262.51 1033.78,261.10 1033.50,260.25 1032.65,259.96 1031.24,260.23"/>
    </edge>
    <edge id=":10569171237_0" function="internal">
        <lane id=":10569171237_0_0" index="0" allow="pedestrian delivery bicycle" speed="3.65" length="4.67" shape="730.08,768.18 729.37,766.93 728.61,766.46 727.78,766.80 726.89,767.93"/>
    </edge>
    <edge id=":10569171238_0" function="internal">
        <lane id=":10569171238_0_0" index="0" disallow="tram rail_urban rail rail_electric rail_fast ship container cable_car subway aircraft wheelchair scooter drone" speed="11.18" length="0.29" shape="734.54,793.66 734.54,793.37"/>
    </edge>
    <edge id=":10569171238_1" function="internal">
        <lane id=":10569171238_1_0" index="0" disallow="tram rail_urban rail rail_electric rail_fast ship container cable_car subway aircraft wheelchair scooter drone" speed="11.18" length="0.31" shape="731.34,793.45 731.35,793.76"/>
    </edge>
    <edge id=":10750446231_0" function="internal">
        <lane id=":10750446231_0_0" index="0" disallow="tram rail_urban rail rail_electric rail_fast ship container cable_car subway aircraft wheelchair scooter drone" speed="8.94" length="5.01" shape="477.32,461.03 472.31,460.66"/>
    </edge>
    <edge id=":10750446231_1" function="internal">
        <lane id=":10750446231_1_0" index="0" disallow="tram rail_urban rail rail_electric rail_fast ship container cable_car subway aircraft wheelchair scooter drone" speed="8.94" length="5.01" shape="472.08,463.85 477.08,464.22"/>
    </edge>
    <edge id=":108148_0" function="internal">
        <lane id=":108148_0_0" index="0" disallow="tram rail_urban rail rail_electric rail_fast ship container cable_car subway aircraft wheelchair scooter drone" speed="11.18" length="11.00" shape="801.11,788.22 799.35,790.98 798.11,792.86 796.63,794.53 794.16,796.63"/>
        <lane id=":108148_0_1" index="1" disallow="tram rail_urban rail rail_electric rail_fast ship container cable_car subway aircraft wheelchair scooter drone" speed="11.18" length="12.02" shape="803.77,789.99 801.85,793.00 800.48,795.05 798.84,796.85 796.14,799.14"/>
    </edge>
    <edge id=":108148_2" function="internal">
        <lane id=":108148_2_0" index="0" disallow="tram rail_urban rail rail_electric rail_fast ship container cable_car subway aircraft wheelchair scooter drone" speed="8.94" length="12.04" shape="806.44,791.76 804.16,794.69 802.24,796.65 800.65,798.57 799.38,801.38"/>
    </edge>
    <edge id=":108149_0" function="internal">
        <lane id=":108149_0_0" index="0" disallow="tram rail_urban rail rail_electric rail_fast ship container cable_car subway aircraft wheelchair scooter drone" speed="6.25" length="8.34" shape="793.12,853.51 794.38,852.02 796.02,851.37 798.03,851.58 800.41,852.64"/>
    </edge>
    <edge id=":108149_1" function="internal">
        <lane id=":108149_1_0" index="0" disallow="tram rail_urban rail rail_electric rail_fast ship container cable_car subway aircraft wheelchair scooter drone" speed="8.94" length="9.61" shape="790.97,842.58 791.65,844.96 791.78,847.30 791.35,849.60 790.38,851.86"/>
    </edge>
    <edge id=":108149_2" function="internal">
        <lane id=":108149_2_0" index="0" disallow="tram rail_urban rail rail_electric rail_fast ship container cable_car subway aircraft wheelchair scooter drone" speed="8.94" length="13.75" shape="790.97,842.58 792.68,846.37 794.41,848.72 796.78,850.52 800.41,852.64"/>
        <lane id=":108149_2_1" index="1" disallow="tram rail_urban rail rail_electric rail_fast ship container cable_car subway aircraft wheelchair scooter drone" speed="8.94" length="13.75" shape="793.68,840.75 794.58,843.16 796.35,845.53 798.99,847.86 802.51,850.16"/>
    </edge>
    <edge id=":108153_0" function="internal">
        <lane id=":108153_0_0" index="0" disallow="tram rail_urban rail rail_electric rail_fast ship container cable_car subway aircraft wheelchair scooter drone" speed="8.94" length="5.04" shape="841.95,732.74 839.19,736.96"/>
    </edge>
    <edge id=":108157_0" function="internal">
        <lane id=":108157_0_0" index="0" disallow="tram rail_urban rail rail_electric rail_fast ship container cable_car subway aircraft wheelchair scooter drone" speed="11.18" length="0.19" shape="854.57,700.99 854.57,701.05 854.56,701.09 854.55,701.13 854.54,701.18"/>
    </edge>
    <edge id=":108157_1" function="internal">
        <lane id=":108157_1_0" index="0" disallow="tram rail_urban rail rail_electric rail_fast ship container cable_car subway aircraft wheelchair scooter drone" speed="11.18" length="0.58" shape="857.68,701.82 857.71,701.65 857.73,701.53 857.75,701.41 857.76,701.24"/>
    </edge>
    <edge id=":10879662400_0" function="internal">
        <lane id=":10879662400_0_0" index="0" allow="pedestrian bicycle" speed="2.89" length="2.94" width="2.00" shape="447.17,904.22 446.56,903.56 446.02,903.39 445.56,903.72 445.19,904.54"/>
    </edge>
    <edge id=":10956422892_0" function="internal">
        <lane id=":10956422892_0_0" index="0" disallow="tram rail_urban rail rail_electric rail_fast ship container cable_car subway aircraft wheelchair scooter drone" speed="13.41" length="1.24" shape="385.81,791.20 385.23,791.65"/>
        <lane id=":10956422892_0_1" index="1" disallow="tram rail_urban rail rail_electric rail_fast ship container cable_car subway aircraft wheelchair scooter drone" speed="11.21" length="1.24" shape="386.05,788.01 384.38,788.56"/>
    </edge>
    <edge id=":10956422894_0" function="internal">
        <lane id=":10956422894_0_0" index="0" disallow="tram rail_urban rail rail_electric rail_fast ship container cable_car subway aircraft wheelchair scooter drone" speed="13.41" length="0.27" shape="344.88,788.15 345.23,788.19"/>
        <lane id=":10956422894_0_1" index="1" disallow="tram rail_urban rail rail_electric rail_fast ship container cable_car subway aircraft wheelchair scooter drone" speed="13.41" length="0.27" shape="345.27,784.98 345.47,784.99"/>
    </edge>
    <edge id=":10956422895_0" function="internal">
        <lane id=":10956422895_0_0" index="0" disallow="tram rail_urban rail rail_electric rail_fast ship container cable_car subway aircraft wheelchair scooter drone" speed="13.41" length="0.67" shape="340.59,778.46 340.14,777.90"/>
        <lane id=":10956422895_0_1" index="1" disallow="tram rail_urban rail rail_electric rail_fast ship container cable_car subway aircraft wheelchair scooter drone" speed="13.41" length="0.67" shape="340.20,781.64 339.90,781.09"/>
    </edge>
    <edge id=":10956422895_2" function="internal">
        <lane id=":10956422895_2_0" index="0" disallow="tram rail_urban rail rail_electric rail_fast ship container cable_car subway aircraft wheelchair scooter drone" speed="13.41" length="0.15" shape="339.40,787.47 339.47,787.48"/>
        <lane id=":10956422895_2_1" index="1" disallow="tram rail_urban rail rail_electric rail_fast ship container cable_car subway aircraft wheelchair scooter drone" speed="13.41" length="0.15" shape="339.65,784.28 339.87,784.30"/>
    </edge>
    <edge id=":10956422896_0" function="internal">
        <lane id=":10956422896_0_0" index="0" disallow="tram rail_urban rail rail_electric rail_fast ship container cable_car subway aircraft wheelchair scooter drone" speed="10.21" length="2.47" shape="388.52,782.32 387.96,782.33 387.57,782.38 387.19,782.37 386.67,782.19"/>
        <lane id=":10956422896_0_1" index="1" disallow="tram rail_urban rail rail_electric rail_fast ship container cable_car subway aircraft wheelchair scooter drone" speed="12.88" length="2.47" shape="388.35,785.51 387.44,785.50 386.81,785.52 386.20,785.43 385.36,785.12"/>
    </edge>
    <edge id=":10956422896_2" function="internal">
        <lane id=":10956422896_2_0" index="0" disallow="tram rail_urban rail rail_electric rail_fast ship container cable_car subway aircraft wheelchair scooter drone" speed="3.65" length="4.67" shape="388.35,785.51 387.11,786.25 386.67,787.03 387.02,787.85 388.18,788.71"/>
    </edge>
    <edge id=":10956422896_3" function="internal">
        <lane id=":10956422896_3_0" index="0" disallow="tram rail_urban rail rail_electric rail_fast ship container cable_car subway aircraft wheelchair scooter drone" speed="13.41" length="3.15" shape="385.42,791.60 386.17,791.49 386.70,791.60 387.23,791.78 388.01,791.91"/>
        <lane id=":10956422896_3_1" index="1" disallow="tram rail_urban rail rail_electric rail_fast ship container cable_car subway aircraft wheelchair scooter drone" speed="13.41" length="3.15" shape="384.58,788.51 385.62,788.33 386.35,788.40 387.10,788.57 388.18,788.71"/>
    </edge>
    <edge id=":10956422896_5" function="internal">
        <lane id=":10956422896_5_0" index="0" disallow="tram rail_urban rail rail_electric rail_fast ship container cable_car subway aircraft wheelchair scooter drone" speed="4.44" length="6.12" shape="384.58,788.51 386.58,787.77 387.38,786.95 386.97,786.07 385.36,785.12"/>
    </edge>
    <edge id=":10965405728_0" function="internal">
        <lane id=":10965405728_0_0" index="0" disallow="tram rail_urban rail rail_electric rail_fast ship container cable_car subway aircraft wheelchair scooter drone" speed="13.89" length="3.76" shape="1024.03,616.41 1022.21,619.70"/>
    </edge>
    <edge id=":10965405728_1" function="internal">
        <lane id=":10965405728_1_0" index="0" disallow="tram rail_urban rail rail_electric rail_fast ship container cable_car subway aircraft wheelchair scooter drone" speed="13.89" length="3.76" shape="1025.01,621.24 1026.83,617.95"/>
    </edge>
    <edge id=":11071029789_0" function="internal">