<?xml version="1.0" encoding="UTF-8"?>

<!-- generated on 2026-04-11T18:55:15.793022+00:00 by Eclipse SUMO duarouter 1.25.0
<duarouterConfiguration xmlns:xsi="http://www.w3.org/2001/XMLSchema-instance" xsi:noNamespaceSchemaLocation="http://sumo.dlr.de/xsd/duarouterConfiguration.xsd">

    <input>
        <net-file value="greenwich.net.xml"/>
        <route-files value="greenwich.trips.xml"/>
    </input>

    <output>
        <output-file value="greenwich.rou.xml"/>
    </output>

</duarouterConfiguration>
-->

<routes xmlns:xsi="http://www.w3.org/2001/XMLSchema-instance" xsi:noNamespaceSchemaLocation="http://sumo.dlr.de/xsd/routes_file.xsd">
<vType id="egoType" accel="0.1" decel="0.1" sigma="0.5" length="4.5" minGap="0.1" maxSpeed="30"/>    

    <vehicle id="0" depart="0">
        <route edges="1455075109#2 -1455075109#2 -1455075109#1 -1455075109#0 -10402804#0"/>
    </vehicle>
    <vehicle id="1" depart="1.00">
        <route edges="-33290909#1 -33290909#0 -307639253#4 -307639253#3 -307639253#2 -307639253#1 -307639253#0 -551361239 551361242#0 551361242#1 551361242#2 32622723 697668256#0 697668256#1 1073852872 697668254 44061951#0 44061951#3 1073852873 1073852874#0 1073852874#1 1073852874#2 160665947#2 243597210 -33287445#1 -33287445#0"/>
    </vehicle>
  <vehicle id="ego" type="egoType" depart="2.00" departSpeed="0.1" color="1,0,0">
    <!-- vehicle id="2" depart="2.00" -->
        <route edges="307639253#4 601432354 690247995#0 690247995#1 690247995#2 690247995#3 666358602 121524768 1025979098 1354063233#1 1354063233#2 307639255#1 823303014#0 823303014#1 1046625821#0 1046625821#2 1046625822#0 1046625822#1 1046625822#2 1046625822#3 1046625822#4 1046625822#5 1046625822#6 1046625822#7 1046625822#8 1046625822#9 1046625822#10 40379823 1073852876 1192631939 229939369#0 229939369#4 229939369#5 1073852875#0 1073852875#1 1430379354 22726127#1"/>
    </vehicle>
    <vehicle id="3" depart="3.00">
        <route edges="551178900#2 -551178900#2 -551178900#1 -1430379354 -1073852875#1 -1073852875#0 -229939369#5 -229939369#4 -229939369#0 -1192631939 -1073852876"/>
    </vehicle>
    <vehicle id="4" depart="4.00">
        <route edges="-936970448#1 -472386734#0 472386734#0 936970448#1 1179639039 1179639037 1179639041 551361241#0 551361241#1 551361241#2 32622723 697668256#0 697668256#1 1073852872 697668254 44061951#0 44061951#3 1073852873 1073852874#0 1073852874#1 1073852874#2 160665947#2 243597210 4358983 1354774001#0 1354774001#1 1354774000 474079183#0 474079183#1 1244047384 1244047385 238966593#0 238966593#1 238966593#2 823306268 823306266 160665950#0 -908563323 -1192631941 -102571898 -1073852875#1 -1073852875#0 -229939369#5 -229939369#4 10402864#1 1234970174 1234970175#0 -1234970175#0 -1234970174 -10402864#1"/>
    </vehicle>
    <vehicle id="5" depart="5.00">
        <route edges="-32622723 5027966#0 5027966#1 551361239 307639253#0 307639253#1 307639253#2 307639253#3 307639253#4 601432354 690247995#0 690247995#1 690247995#2 690247995#3 666358602 121524768 1025979098 1354063233#1 1354063233#2 307639255#1 823303014#0 823303014#1 1046625821#0 1046625821#2 1046625822#0 1046625822#1 1046625822#2 1046625822#3 1046625822#4 1046625822#5 1046625822#6 1046625822#7 1046625822#8 1046625822#9"/>
    </vehicle>
    <vehicle id="6" depart="6.00">
        <route edges="-10403142#1 -10403142#0 10403142#0 10403142#1 10403142#2 10403142#3 1455059639#0 1180672187 -10402734 -1430379355 102571898 1192631941 908563323 238267508#0 238267508#1 238267508#2 4358981 160665946#0 -1073852874#2 -1073852874#1 -1073852874#0 -1073852873 -44061951#3 -44061951#0 -697668254 -1073852872 -697668256#1 -697668256#0 -32622723 5027966#0 5027966#1 551361239 307639253#0 307639253#1 307639253#2 307639253#3 307639253#4 -307639253#4"/>
    </vehicle>
    <vehicle id="7" depart="7.00">
        <route edges="160665947#2 243597210 -33287445#1 -33287445#0 -33287738#6 -33287738#5 -33287738#4 -33287738#3 33287592 1091836359#0 1073852874#1 -1133611192#0 -33290704 33290704 1133611192#0"/>
    </vehicle>
    <vehicle id="8" depart="8.00">
        <route edges="-33287445#0 33287445#0 33287445#1 4358983 1354774001#0 1354774001#1 1354774000 474079183#0 474079183#1 1244047384 1244047385 238966593#0 238966593#1 238966593#2 823306268 823306266 160665950#0 -908563323 -1192631941 -102571898 -1073852875#1 -1073852875#0 -229939369#5 -229939369#4 10402864#1 1234970174 1234970175#0 238267481#0 238267481#1 238267481#3 238267481#4 1455117679 1338622914"/>
    </vehicle>
    <vehicle id="9" depart="9.00">
        <route edges="33290796#2 -33290909#2 -33290909#1 -33290909#0 601432354 690247995#0 690247995#1 690247995#2 690247995#3 666358602 121524768 1025979098 1354063233#1 1354063233#2 307639255#1 823303014#0 823303014#1 1046625821#0 1046625821#2 1046625822#0 1046625822#1 1046625822#2 1046625822#3 1046625822#4 1046625822#5 1046625822#6 1046625822#7 1046625822#8 1046625822#9 1046625822#10 40379823 1073852876 1192631939 229939369#0 229939369#4 229939369#5 1073852875#0 1073852875#1 1430379354 22726127#1 22726127#2 10402697#1 -10402697#1"/>
    </vehicle>
    <vehicle id="10" depart="10.00">
        <route edges="33290796#1 33290796#2 -33290909#2 -33290909#1 -33290909#0 601432354 690247995#0 690247995#1 690247995#2 690247995#3 666358602 121524768 1025979098 1354063233#1 1354063233#2 307639255#1 823303014#0 823303014#1 1046625821#0 1046625821#2 1046625822#0 1046625822#1 1046625822#2 1046625822#3 1046625822#4 1046625822#5 1046625822#6 1046625822#7 1046625822#8 1046625822#9 1046625822#10 40379823 1073852876 1192631939 229939369#0 10402864#1 1234970174 1234970175#0 238267481#0 238267481#1"/>
    </vehicle>
    <vehicle id="11" depart="11.00">
        <route edges="-551361237 -551361246 -697667715 697667715 551361246 551361237 614592145 1075227604 -551361241#2 -551361241#1 -551361241#0 551361241#0 551361241#1 551361241#2 32622723 697668256#0 697668256#1 1073852872 697668254 -914291075#0 -51358200#3 -51358200#1 -51358200#0 -163265767#1"/>
    </vehicle>
    <vehicle id="12" depart="12.00">
        <route edges="777261310#0 777261310#1 777261310#2 777261310#3 777261310#5 307639258 -22726093 -10402697#1 1430381659#1 551178899 -551178899"/>
    </vehicle>
    <vehicle id="13" depart="13.00">
        <route edges="-1192631939 -1073852876 1073852876 1192631939 229939369#0 229939369#4 229939369#5 1073852875#0 1073852875#1 1430379355 10402734 -1180672187"/>
    </vehicle>
    <vehicle id="14" depart="14.00">
        <route edges="33290796#1 33290796#2 -33290909#2 -33290909#1 -33290909#0 -307639253#4 -307639253#3 -307639253#2 -307639253#1 307639253#1 307639253#2 307639253#3 307639253#4"/>
    </vehicle>
    <vehicle id="15" depart="15.00">
        <route edges="1073852874#1 -1073852874#1 -1073852874#0 -1073852873 -44061951#3 -44061951#0 -697668254 -1073852872 -697668256#1 -697668256#0 -32622723 5027966#0 5027966#1 551361239 307639253#0 307639253#1 307639253#2 307639253#3 307639253#4 601432354 690247995#0 690247995#1 690247995#2 690247995#3 666358602 121524768 1025979098 1354063233#1 1354063233#2 307639255#1 823303014#0"/>
    </vehicle>
    <vehicle id="16" depart="16.00">
        <route edges="-697667715 697667715 551361246 551361237 614592145 1075227604 -551361241#2 -551361241#1 -551361241#0 1179639038 1179639036 1179639040 -936970448#1 -472386734#0 472386734#0 936970448#1 1179639039 1179639037"/>
    </vehicle>
    <vehicle id="17" depart="17.00">
        <route edges="44061951#3 1073852873 1073852874#0 1073852874#1 1073852874#2 160665947#2 243597210 4358983 1354774001#0 1354774001#1 1354774000 474079183#0 474079183#1 1244047384 1244047385 238966593#0 238966593#1 238966593#2 823306268 823306266 160665950#0 -908563323 -1192631941 -102571898 1430379355"/>
    </vehicle>
    <vehicle id="18" depart="18.00">
        <route edges="473436081#3 473436952#0 473436952#1 326003607#0 326003607#1 326003607#2 326003607#3 -326003607#3 -326003607#2 -326003607#1 -326003607#0 -473436952#1 -473436952#0 -473436081#3 -473436081#2 -473436081#1 -473436081#0 697667715 551361246 551361237 614592145 1075227604 -551361241#2 -551361241#1 -551361241#0 551361241#0 551361241#1 551361241#2 32622723 697668256#0 697668256#1 1073852872 697668254 44061951#0 44061951#3 1073852873 1073852874#0 1073852874#1 1073852874#2 160665947#2 243597210 4358983 1354774001#0 1354774001#1 1354774000 474079183#0 474079183#1 1244047384 1244047385 238966593#0 238966593#1 238966593#2 823306268 823306266 160665950#0 -908563323 -1192631941 -102571898 -1073852875#1 -1073852875#0 -229939369#5 -229939369#4 10402864#1 1234970174 1234970175#0"/>
    </vehicle>
    <vehicle id="19" depart="19.00">
        <route edges="238267481#1 1338622912#1 10402755 1455075109#0 1455075109#1 1455075109#2 -640773#0 502722054#2 -1046625822#10 -1046625822#9 -1046625822#8 -1046625822#7 -1046625822#6 -1046625822#5 -1046625822#4 -1046625822#3 -1046625822#2 -1046625822#1"/>
    </vehicle>
    <vehicle id="20" depart="20.00">
        <route edges="-33287592 33287738#3 33287738#4 33287738#5 33287738#6 33287445#0 33287445#1 4358983 1354774001#0 1354774001#1 1354774000 474079183#0 474079183#1 1244047384 1244047385 238966593#0 238966593#1 238966593#2 823306267 4485853#0 4485853#1 4485853#2 4485853#3 1165104420 1073852869#0 1073852869#1 1073852869#3 -1073852869#3 -1073852869#1 -1073852869#0 -1165104420 -4485853#3 -4485853#2 -4485853#1"/>
    </vehicle>
    <vehicle id="21" depart="21.00">
        <route edges="-1073852876 1073852876 1192631939 229939369#0 229939369#4 229939369#5 1073852875#0 1073852875#1 102571898 1192631941 908563323 238267508#0 238267508#1 238267508#2 4358981 160665946#0 -1073852874#2 -1073852874#1 -1091836359#0 -33287592 -33287738#2 -33287738#1 -33287738#0"/>
    </vehicle>
    <vehicle id="22" depart="22.00">
        <route edges="-1234970175#0 -1234970174 -10402864#1 229939369#4 229939369#5 1073852875#0 1073852875#1 1430379354 22726127#1 22726127#2 10402697#1 33452867 -33452867"/>
    </vehicle>
    <vehicle id="23" depart="23.00">
        <route edges="1455075109#0 1455075109#1 1455075109#2 -640773#0 502722054#2 -1046625822#10 -1046625822#9 -1046625822#8 -1046625822#7 -1046625822#6 -1046625822#5 -1046625822#4 -1046625822#3 -1046625822#2 -1046625822#1 -1046625822#0 1192631937 1046625823#0 1046625823#2 -639119585#6"/>
    </vehicle>
    <vehicle id="24" depart="24.00">
        <route edges="-690247995#0 -601432354 -307639253#4 -307639253#3 -307639253#2 -307639253#1 -307639253#0 -551361239 551361242#0 551361242#1 551361242#2 32622723 697668256#0 697668256#1 1073852872 697668254 -914291075#0 -51358200#3 -51358200#1 -51358200#0 316418063#0 316418063#1 1354773998#0 1354773998#1 -1354773998#1 -1354773998#0 -316418063#1"/>
    </vehicle>
    <vehicle id="25" depart="25.00">
        <route edges="-33290796#0 -33290909#1 -33290909#0 601432354 690247995#0 690247995#1"/>
    </vehicle>
    <vehicle id="26" depart="26.00">
        <route edges="160665946#0 -1073852874#2 -1133611192#0 -33290704 10402715#0 10402715#1 10402715#2 1430375024#0 1430375024#1"/>
    </vehicle>
    <vehicle id="27" depart="27.00">
        <route edges="-22726568#2 -22726568#1 -1046625822#6 -1046625822#5 -1046625822#4 -1046625822#3 -1046625822#2 -1046625822#1 -1046625822#0 1192631937 1046625823#0 1046625823#2 -823303014#1 -823303014#0 -307639255#1 -1354063233#2 -1354063233#1 -1025979098 -121524768 121524755 -690247995#3 -690247995#2 -690247995#1 -690247995#0 -601432354 -307639253#4 -307639253#3 -307639253#2 -307639253#1 307639253#1 307639253#2 307639253#3"/>
    </vehicle>
    <vehicle id="28" depart="28.00">
        <route edges="-22726093 -10402697#1 -22726127#2 -22726127#1 -1430379354 102571898 1192631941 908563323 238267508#0 238267508#1 238267508#2 4358981 160665946#0 -1073852874#2 -1073852874#1 -1073852874#0 -1073852873 -44061951#3 -44061951#0 -697668254 -1073852872 -697668256#1 -697668256#0 -32622723 -551361241#2 -551361241#1 -551361241#0 551361241#0 551361241#1 551361241#2 -1075227604 -614592145 -551361237 -551361246 -697667715"/>
    </vehicle>
    <vehicle id="29" depart="29.00">
        <route edges="927008863 33290221#1 126352103 1430375025#0 1430375025#1 1430375024#1 1430375024#2 -791010708#1 -791010708#0 551361242#0 551361242#1 551361242#2 32622723 697668256#0 697668256#1 1073852872 697668254 44061951#0 44061951#3 1073852873 1073852874#0 1073852874#1 1073852874#2 160665947#2 243597210 4358983 1354774001#0 1354774001#1 1354774000 474079183#0 474079183#1 1244047384 1244047385 238966593#0 238966593#1 238966593#2 823306268 823306266 160665950#0"/>
    </vehicle>
    <vehicle id="30" depart="30.00">
        <route edges="1165104420 1073852869#0 1073852869#1 1073852869#3 -1073852869#3 -1073852869#1 -1073852869#0 -1165104420 -4485853#3 -4485853#2 -4485853#1 -4485853#0 1122669029 823306266 238267510#0 238267510#1 238267510#2 4358981 160665946#0 -1073852874#2 -1073852874#1 -1073852874#0 -1073852873 -44061951#3 -44061951#0 -914291075#0 -51358200#3 -51358200#1 -51358200#0 -163265767#1 -163265767#0 228860617#0"/>
    </vehicle>
    <vehicle id="31" depart="31.00">
        <route edges="-33287707#0 33287738#0 33287738#1 33287738#2 33287738#3 33287738#4 33287738#5 33287738#6 33287445#0 33287445#1 4358983 1354774001#0 1354774001#1 1354774000 474079183#0 474079183#1 1244047384 1244047385 238966593#0 238966593#1 238966593#2 823306268 823306266 160665950#0 -908563323 -1192631941 -102571898 1430379355 10402734 -1180672187 -1455059639#0 -10403142#3 -10403142#2 -10403142#1"/>
    </vehicle>
    <vehicle id="32" depart="32.00">
        <route edges="-473436952#1 -473436952#0 -473436081#3 -473436081#2 -473436081#1 -473436081#0 697667715 551361246 551361237 614592145 1075227604 5027966#0 5027966#1 551361239 307639253#0 307639253#1 307639253#2 307639253#3 307639253#4 33290909#0 33290909#1 33290909#2 -33290796#2"/>
    </vehicle>
    <vehicle id="33" depart="33.00">
        <route edges="-326003607#0 -473436952#1 -473436952#0 -473436081#3 -473436081#2 -473436081#1 -473436081#0 697667715"/>
    </vehicle>
    <vehicle id="34" depart="34.00">
        <route edges="51358200#1 51358200#3 914291075#0 -697668254 -1073852872 -697668256#1 -697668256#0 -32622723 -551361241#2 -551361241#1 -551361241#0 551361241#0 551361241#1 551361241#2 -1075227604 -614592145 -551361237 -551361246 -697667715 473436081#0 473436081#1 473436081#2 473436081#3 473436952#0 473436952#1 326003607#0 326003607#1 326003607#2 326003607#3 -326003607#3 -326003607#2 -326003607#1 -326003607#0 -473436952#1 -473436952#0 -473436081#3 -473436081#2"/>
    </vehicle>
    <vehicle id="35" depart="35.00">
        <route edges="163265767#0 163265767#1 51358200#0 51358200#1 51358200#3 914291075#0 44061951#0 44061951#3 1073852873 1073852874#0 1073852874#1 1073852874#2 160665947#2 243597210 4358983 1354774001#0 1354774001#1 1354774000 474079183#0 474079183#1 1244047384 1244047385 238966593#0 238966593#1 238966593#2 823306268 823306266 160665950#0 -908563323 -1192631941 -102571898 1430379354 22726127#1 22726127#2 10402697#1 22726093 -307639258 -777261310#5"/>
    </vehicle>
    <vehicle id="36" depart="36.00">
        <route edges="551361242#2 32622723 697668256#0 697668256#1 1073852872 697668254 44061951#0 44061951#3 1073852873 1073852874#0 1073852874#1 1073852874#2 160665947#2 243597210 4358983 1354774001#0 1354774001#1 1354774000 474079183#0 474079183#1 1244047384 1244047385 238966593#0 238966593#1 238966593#2 823306268 823306266 160665950#0 -908563323 -1192631941 -102571898 -1073852875#1 -1073852875#0 -229939369#5 -229939369#4 10402864#1 1234970174 1234970175#0 238267481#0 238267481#1 1234972230#1 10402764"/>
    </vehicle>
    <vehicle id="37" depart="37.00">
        <route edges="-33290754#3 -33290754#2 -33290754#1 -33290754#0 -22726077 -791010708#5 -791010708#3 -791010708#1 -791010708#0 551361242#0 551361242#1 551361242#2 32622723 697668256#0 697668256#1 1073852872 697668254 44061951#0 44061951#3 1073852873 1073852874#0 1073852874#1 1073852874#2 160665947#2 243597210 -33287445#1 -33287445#0 -33287738#6"/>
    </vehicle>
    <vehicle id="38" depart="38.00">
        <route edges="1179639037 1179639041 551361241#0 551361241#1 551361241#2 5027966#0 5027966#1 551361239 307639253#0 307639253#1 307639253#2 307639253#3 307639253#4 33290909#0 33290909#1 33290909#2 -33290796#2 -33290796#1 -33290796#0"/>
    </vehicle>
    <vehicle id="39" depart="39.00">
        <route edges="121524768 1025979098 -1025979098 -121524768 121524755 -690247995#3 -690247995#2 -690247995#1 -690247995#0 -601432354 -307639253#4 -307639253#3 -307639253#2 -307639253#1 -307639253#0 -551361239 551361242#0 551361242#1 551361242#2 -551361241#2 -551361241#1 -551361241#0 551361241#0"/>
    </vehicle>
    <vehicle id="40" depart="40.00">
        <route edges="-791010708#0 551361242#0 551361242#1 551361242#2 -1075227604 -614592145 -551361237 -551361246 -697667715 473436081#0 473436081#1 473436081#2 473436081#3 473436952#0 473436952#1 326003607#0 326003607#1 326003607#2 326003607#3 -326003607#3"/>
    </vehicle>
    <vehicle id="41" depart="41.00">
        <route edges="936970448#1 1179639039 1179639037 1179639041 551361241#0 551361241#1 551361241#2 5027966#0 5027966#1 551361239 307639253#0 307639253#1 307639253#2 307639253#3 307639253#4 601432354 690247995#0 690247995#1 690247995#2 690247995#3 666358602 121524768 1025979098 1354063233#1 1354063233#2 307639255#1 823303014#0 823303014#1 1046625821#0 1046625821#2 1046625822#0 1046625822#1 1046625822#2 1046625822#3 1046625822#4 1046625822#5 1046625822#6 -1046625822#6 -1046625822#5 -1046625822#4 -1046625822#3 -1046625822#2 -1046625822#1 -1046625822#0 1192631937 1046625823#0"/>
    </vehicle>
    <vehicle id="42" depart="42.00">
        <route edges="-1180672187 -1455059639#0 1455059639#0 1180672187 -10402734 -1430379355 -1073852875#1 -1073852875#0 -229939369#5 -229939369#4 -229939369#0 -1192631939 -1073852876 40379821 1350745574#0 -1046625822#10"/>
    </vehicle>
    <vehicle id="43" depart="43.00">
        <route edges="-1338622913 -1338622914 -1455117679 -238267481#4 -238267481#3 1338622912#1 10402755 1455075109#0 1455075109#1"/>
    </vehicle>
    <vehicle id="44" depart="44.00">
        <route edges="33290221#1 126352103 1430375025#0 1430375025#1 1430375024#1 1430375024#2 -791010708#1 -791010708#0 551361242#0 551361242#1 551361242#2 -551361241#2 -551361241#1 -551361241#0 1179639038 1179639036 1179639040 -936970448#1"/>
    </vehicle>
    <vehicle id="45" depart="45.00">
        <route edges="-1073852869#3 -1073852869#1 -1073852869#0 -1165104420 -4485853#3 -4485853#2 -4485853#1 -4485853#0 1122669029 823306266 238267510#0 238267510#1 238267510#2 4358981 160665946#0 -1073852874#2 -1073852874#1 -1073852874#0 -1073852873 -44061951#3 -44061951#0 -697668254"/>
    </vehicle>
    <vehicle id="46" depart="46.00">
        <route edges="936970448#1 1179639039 1179639037 1179639041 551361241#0 551361241#1 551361241#2 32622723 697668256#0 697668256#1 1073852872 697668254 44061951#0 44061951#3 1073852873 1073852874#0 1073852874#1 1073852874#2 160665947#2 243597210 4358983 1354774001#0 1354774001#1 1354774000 474079183#0 474079183#1 1244047384 1244047385 238966593#0 238966593#1 238966593#2 823306268 823306266 160665950#0 -908563323 -1192631941 -102571898 -1073852875#1 -1073852875#0 -229939369#5 -229939369#4 229939369#4 229939369#5 1073852875#0"/>
    </vehicle>
    <vehicle id="47" depart="47.00">
        <route edges="791010708#3 -791010708#3 -791010708#1 -791010708#0 551361242#0 551361242#1 551361242#2 -551361241#2 -551361241#1 -551361241#0 551361241#0 551361241#1 551361241#2 5027966#0"/>
    </vehicle>
    <vehicle id="48" depart="48.00">
        <route edges="-10402733#2 -10402733#0 10402733#0 10402733#2 -238267481#0 -1234970175#0 -1234970174 -10402864#1 229939369#4 229939369#5 1073852875#0 1073852875#1 102571898 1192631941 908563323 238267508#0 238267508#1 238267508#2 4358981 160665946#0 -1073852874#2 -1073852874#1 -1073852874#0 -1073852873 -44061951#3 -44061951#0 -697668254 -1073852872 -697668256#1 -697668256#0 -32622723 5027966#0 5027966#1 551361239 307639253#0"/>
    </vehicle>
    <vehicle id="49" depart="49.00">
        <route edges="22726093 -307639258 -777261310#5 -777261310#3 -777261310#2 -777261310#1 -777261310#0 -551178900#2 -551178900#1 -1430379354 102571898 1192631941 908563323 238267508#0 238267508#1 238267508#2 4358981 160665946#0 -1073852874#2 -1073852874#1 -1073852874#0 -1073852873 -44061951#3 -44061951#0 -914291075#0 -51358200#3 -51358200#1 -51358200#0 -163265767#1 -163265767#0 228860617#0 228860617#1 697667715 551361246 551361237 614592145 1075227604"/>
    </vehicle>
    <vehicle id="50" depart="50.00">
        <route edges="-33290796#0 -33290909#1 -33290909#0 -307639253#4 -307639253#3 -307639253#2 -307639253#1 -307639253#0 -551361239 551361242#0 551361242#1 551361242#2 32622723 697668256#0 697668256#1 1073852872 697668254 44061951#0 44061951#3 1073852873 1073852874#0 1073852874#1 1073852874#2 160665947#2 243597210 4358983 1354774001#0 1354774001#1 1354774000 474079183#0 474079183#1 1244047384 1244047385 238966593#0 238966593#1 238966593#2 823306268 823306266 160665950#0"/>
    </vehicle>
    <vehicle id="51" depart="51.00">
        <route edges="-1338622914 -1455117679 -238267481#4 -238267481#3 -238267481#1 -238267481#0 -1234970175#0 -1234970174 -10402864#1 229939369#4 229939369#5 1073852875#0 1073852875#1 1430379355 10402734 -1180672187 -1455059639#0 -10403142#3 22721408#1 22721408#2 1037360590#0"/>
    </vehicle>
    <vehicle id="52" depart="52.00">
        <route edges="10402733#0 10402733#2 -238267481#0 -1234970175#0 -1234970174 -10402864#1 229939369#4 229939369#5 1073852875#0 1073852875#1 1430379354 551178900#1 551178900#2 777261310#0 777261310#1"/>
    </vehicle>
    <vehicle id="53" depart="53.00">
        <route edges="51358200#0 51358200#1 51358200#3 914291075#0 -697668254 -1073852872 -697668256#1 -697668256#0 -32622723 5027966#0 5027966#1 551361239 307639253#0 307639253#1 307639253#2 307639253#3 307639253#4 33290909#0 33290909#1 33290909#2 -33290796#2 -33290796#1 -33290796#0"/>
    </vehicle>
    <vehicle id="54" depart="54.00">
        <route edges="1046625822#10 40379823 1073852876 1192631939 229939369#0 229939369#4 229939369#5 1073852875#0 1073852875#1 -1073852875#1 -1073852875#0 -229939369#5 -229939369#4"/>
    </vehicle>
    <vehicle id="55" depart="55.00">
        <route edges="551361242#1 551361242#2 32622723 697668256#0 697668256#1 1073852872 697668254 44061951#0 44061951#3 1073852873 1073852874#0 1073852874#1 1073852874#2 160665947#2 243597210 4358983 1354774001#0 1354774001#1 1354774000 474079183#0 474079183#1 1244047384 1244047385 238966593#0 238966593#1 238966593#2 823306268 823306266 160665950#0 -908563323 -1192631941 -102571898 1430379354 22726127#1 22726127#2 1430381659#1 551178899 551178896"/>
    </vehicle>
    <vehicle id="56" depart="56.00">
        <route edges="1354063233#2 307639255#1 823303014#0 823303014#1 -823303014#1 -823303014#0 -307639255#1 -1354063233#2 -1354063233#1 -1025979098 -121524768 121524755 -690247995#3 -690247995#2 -690247995#1 -690247995#0 -601432354 -307639253#4 -307639253#3 -307639253#2 -307639253#1 -307639253#0 -551361239 551361242#0 551361242#1 551361242#2 32622723 697668256#0 697668256#1 1073852872 697668254 -914291075#0 -51358200#3 -51358200#1 -51358200#0 -163265767#1 -163265767#0"/>
    </vehicle>
    <vehicle id="57" depart="57.00">
        <route edges="33287445#1 4358983 1354774001#0 1354774001#1 1354774000 474079183#0 474079183#1 1244047384 1244047385 238966593#0 238966593#1 238966593#2 823306268 823306266 238267510#0 238267510#1 238267510#2 4358981 41403629#0 41403629#1 41403629#2 243597210 -33287445#1 -33287445#0 -33287738#6 -33287738#5 -33287738#4 -33287738#3 33287592 1091836359#0"/>
    </vehicle>
    <vehicle id="58" depart="58.00">
        <route edges="33287738#4 33287738#5 33287738#6 33287445#0 33287445#1 4358983 1354774001#0 1354774001#1 1354774000 474079183#0 474079183#1 1244047384 1244047385 238966593#0 238966593#1 238966593#2 823306268 823306266 160665950#0 -908563323 -1192631941 -102571898 -1073852875#1 -1073852875#0 -229939369#5 -229939369#4 229939369#4 229939369#5 1073852875#0"/>
    </vehicle>
    <vehicle id="59" depart="59.00">
        <route edges="-1015724759 -1181813751 1181813751 1015724759 238267497#0 238267497#1 238267497#2 238267497#3 1122669029 823306266 238267510#0 238267510#1 238267510#2 4358981 160665946#0 -1073852874#2 -1073852874#1 -1073852874#0 -1073852873 -44061951#3 -44061951#0 -914291075#0 -51358200#3 -51358200#1"/>
    </vehicle>
    <vehicle id="60" depart="60.00">
        <route edges="-10402775 -1234972230#1 1338622912#1 10402755 1455075109#0 1455075109#1 1455075109#2 640773#2"/>
    </vehicle>
    <vehicle id="61" depart="61.00">
        <route edges="51358200#3 914291075#0 44061951#0 44061951#3 1073852873 1073852874#0 1073852874#1 1073852874#2 160665947#2 243597210 4358983 1354774001#0 1354774001#1 1354774000 474079183#0 474079183#1 1244047384 1244047385 238966593#0 238966593#1 238966593#2 823306267 4485853#0 4485853#1"/>
    </vehicle>
    <vehicle id="62" depart="62.00">
        <route edges="-473436081#1 -473436081#0 697667715 551361246 551361237 614592145 1075227604 5027966#0 5027966#1 551361239 307639253#0 307639253#1 307639253#2 307639253#3 307639253#4 601432354 690247995#0 690247995#1 690247995#2 690247995#3 666358602 121524768 1025979098 1354063233#1 1354063233#2 307639255#1 823303014#0 823303014#1 1046625821#0 1046625821#2 1046625822#0 1046625822#1 1046625822#2 1046625822#3 1046625822#4 1046625822#5 1046625822#6 -1046625822#6"/>
    </vehicle>
    <vehicle id="63" depart="63.00">
        <route edges="51358200#1 51358200#3 914291075#0 -697668254 -1073852872 -697668256#1 -697668256#0 -32622723 32622723 697668256#0"/>
    </vehicle>
    <vehicle id="64" depart="64.00">
        <route edges="-1133611192#0 -33290704 33290704 1133611192#0 -1073852874#1 -1073852874#0 -1073852873 -44061951#3 -44061951#0 -697668254 -1073852872 -697668256#1 -697668256#0 -32622723 5027966#0 5027966#1 551361239 307639253#0 307639253#1 307639253#2 307639253#3 307639253#4 601432354 690247995#0 690247995#1 690247995#2 690247995#3 666358602 121524768 1025979098 1354063233#1 1354063233#2 307639255#1 823303014#0 823303014#1 1046625821#0 1046625821#2 1046625822#0"/>
    </vehicle>
    <vehicle id="65" depart="65.00">
        <route edges="-1073852874#0 -1073852873 -44061951#3 -44061951#0 44061951#0 44061951#3 1073852873 1073852874#0 -1091836359#0 -33287592 33287592"/>
    </vehicle>
    <vehicle id="66" depart="66.00">
        <route edges="33287592 1091836359#0 -1073852874#0 -1073852873 -44061951#3 -44061951#0 -914291075#0 -51358200#3 -51358200#1 -51358200#0 -163265767#1 -1354779894#0"/>
    </vehicle>
    <vehicle id="67" depart="67.00">
        <route edges="10403142#0 10403142#1 10403142#2 10403142#3 1455059639#0 1180672187 -10402734 -1430379355 102571898 1192631941 908563323 238267508#0 238267508#1 238267508#2 4358981 160665946#0 -1073852874#2 -1073852874#1 -1073852874#0 -1073852873 -44061951#3 -44061951#0 -697668254 -1073852872 -697668256#1 -697668256#0 -32622723 -551361241#2 -551361241#1 -551361241#0 1179639038 1179639036"/>
    </vehicle>
    <vehicle id="68" depart="68.00">
        <route edges="-33290796#0 33290909#2 551178897#1"/>
    </vehicle>
    <vehicle id="69" depart="69.00">
        <route edges="-995197113#0 10402715#0 10402715#1 10402715#2 1430375024#0 1430375024#1 1430375024#2 -791010708#1 -791010708#0 551361242#0 551361242#1 551361242#2 -1075227604 -614592145 -551361237 -551361246 -697667715 473436081#0 473436081#1 473436081#2 473436081#3 473436952#0 473436952#1 326003607#0 326003607#1 326003607#2 326003607#3 -326003607#3 -326003607#2 -326003607#1 -326003607#0"/>
    </vehicle>
    <vehicle id="70" depart="70.00">
        <route edges="1073852875#0 1073852875#1 102571898 1192631941 908563323 238267508#0 238267508#1 238267508#2 4358981 160665946#0 -1073852874#2 -1073852874#1 -1073852874#0 -1073852873 -44061951#3 -44061951#0 -697668254 -1073852872 -697668256#1 -697668256#0 -32622723 5027966#0 5027966#1 551361239 307639253#0 307639253#1 307639253#2 307639253#3 307639253#4"/>
    </vehicle>
    <vehicle id="71" depart="71.00">
        <route edges="-307639258 -777261310#5 -777261310#3 -777261310#2 -777261310#1 -777261310#0 -551178900#2 -551178900#1 -1430379354 102571898 1192631941 908563323 238267508#0 238267508#1 238267508#2 4358981 160665946#0 -1073852874#2 -1073852874#1 -1073852874#0 -1073852873 -44061951#3 -44061951#0 -697668254 -1073852872 -697668256#1 -697668256#0 -32622723 -551361241#2 -551361241#1 -551361241#0 551361241#0 551361241#1 551361241#2 -1075227604 -614592145 -551361237 -551361246 -697667715 473436081#0 473436081#1 473436081#2 473436081#3 473436952#0 473436952#1 326003607#0 326003607#1 326003607#2 326003607#3 -326003607#3 -326003607#2 -326003607#1 -326003607#0 -473436952#1 -473436952#0 -473436081#3 -473436081#2 -473436081#1"/>
    </vehicle>
    <vehicle id="72" depart="72.00">
        <route edges="927008864#1 927008863 33290221#1 126352103 1430375025#0 1430375025#1 1430375024#1 1430375024#2 -791010708#1 -791010708#0 551361242#0 551361242#1 551361242#2 32622723 697668256#0 697668256#1 1073852872 697668254 44061951#0 44061951#3 1073852873 1073852874#0 1073852874#1 1073852874#2 160665947#2 243597210 4358983 1354774001#0 1354774001#1 1354774000 474079183#0 474079183#1 1244047384 1244047385 238966593#0 238966593#1 238966593#2 823306268 823306266 160665950#0 -908563323 -1192631941 -102571898 1430379355 10402734 22720898#1"/>
    </vehicle>
    <vehicle id="73" depart="73.00">