<?xml version="1.0" encoding="UTF-8"?>

<!-- generated on 2026-04-11T22:21:26.474114+00:00 by Eclipse SUMO duarouter 1.25.0
<duarouterConfiguration xmlns:xsi="http://www.w3.org/2001/XMLSchema-instance" xsi:noNamespaceSchemaLocation="http://sumo.dlr.de/xsd/duarouterConfiguration.xsd">

    <input>
        <net-file value="8_rh2bps.net.xml"/>
        <route-files value="8_rh2bps.trips.xml"/>
    </input>

    <output>
        <output-file value="8_rh2bps.rou.xml"/>
    </output>

    <time>
        <end value="600"/>
    </time>

</duarouterConfiguration>
-->

<routes xmlns:xsi="http://www.w3.org/2001/XMLSchema-instance" xsi:noNamespaceSchemaLocation="http://sumo.dlr.de/xsd/routes_file.xsd">
<vType id="egoType" accel="0.1" decel="0.1" sigma="0.5" length="4.5" minGap="0.1" maxSpeed="30"/>    

  <vehicle id="ego" type="egoType" depart="0" departSpeed="1" color="1,0,0">
    <!-- vehicle id="0" depart="0.00" -->
        <route edges="35836244#0 35836244#1 504289368 -41445635#2 4203960 -4249945#0 -332074333#2 -332074333#1 -332074334#3 -332074334#2 -332074334#1 -1070252756#2 -1070252756#1 -1070252756#0 -4204142#1 -307619437#1 -307619437#0 -1070252754 -1070252755"/>
    </vehicle>
    <vehicle id="1" depart="1.00">
        <route edges="-509175881#1 -509175881#0 509175881#0 509175881#1 1463807373 1463807372#0 1463807372#1 740780567#0 740780567#1 740780567#2 740780571#0 740780571#1 740780571#2 740780571#3 740780571#4 25677804#0 25677804#1 670647496 740780562#0 740780562#1 740780562#2 740780564#0 74763333 35836244#0 35836244#1 504289368 -41445635#2 4203960 -4249945#0 -332074333#2 -332074333#1 -332074334#3 -332074334#2 -332074334#1 -1070252756#2 -1070252756#1 -1070252756#0 -4204142#1 1070252758#1 4248823#0 4248823#1 4248823#2 509721267#2 509721267#3 1496793008 1496793007 4234528#1 769406157#1 4234562#1 111429439#1 111429439#2 111429439#3 1436746339 111429440#1 -4232980#4 -4232980#3 -4232980#2 -4232980#1 4258073#1 4258073#2 -4258073#2"/>
    </vehicle>
    <vehicle id="2" depart="2.00">
        <route edges="4253494#2 4253494#4 4253494#7 4253494#13 27846827#0 1080826236#1 1080826236#2 1080826236#3 24866118#0 24866118#2 24866118#3 -4253368#2 -4253368#1 240342338#1 240342338#2 240342338#3 240342144#0 240342144#1 309458031 240341241 91145020 1069615485 41517347 38748502 235747880#0 198949189#0 198949189#1 1055437209 1055437211 1105799437 209681537 1055437205 767530622 1055437197#0 767530624#0 767530624#1 245608732#0 767530623 245608731 87371510#3 206702994 245607865#0 245607865#1 2481226#2 2481226#3 211341742#0 211341742#1 211341742#2 39547934 34433562#2 3997148#2 460626743 22870537#0 22870537#1 22870537#2 205143130 1284533230 67076655#0 -909518387#5 -4196693#7 -4196693#6 -4196693#5 -4196693#4 -4196693#3 -4196693#2 41445652#1 41445652#2 41445652#3"/>
    </vehicle>
    <vehicle id="3" depart="3.00">
        <route edges="111429439#3 1436746339 111429440#1 -4232980#4 -4232980#3 -4232980#2 -4232980#1 4258073#1 4258073#2 4258073#3 4258073#4 4258073#6 320718046#0 320718046#1 320718053#0 34428363#0 201621504 1128019071 -34428365#1 4376718#0 4376718#1 4376718#2 48049627#1 1265018946 262756661 155313766#0 155313766#1 1420370015#0 1420370015#1 705953061#0 705953061#1 705953061#2 705953061#3 211489814 1093694664 306191312#0 306191312#1 183479839#0 183479839#1 299395401#0 299395401#1 211489820#0 211489820#1 211489820#2 211489820#4 211489820#5 211489820#6 211561191#1 738388306#0 738388306#1 211561187#0 211560912#0 -237710703#3 -237710703#2 -237710703#1 -4370887#5 -4370887#4 -4370887#0 -475896756 174326447#1 35583681#6 35583681#7 -647062688#9 -647062688#7 -647062688#5 -647062688#4 -647062688#1 -647062688#0 -24866118#3 -24866118#2 -24866118#0 -1080826236#3 -1080826236#2 -1080826236#1"/>
    </vehicle>
    <vehicle id="4" depart="4.00">
        <route edges="-4258068#3 -4258068#2 -4258068#1 -4258072#3 -4258072#2 -4258072#1 -974801001#1 -974801001#0 -1069339267 -931042664 -201621350#1 4257003#0 4257003#3 215103265 211341717 1069339265 34433563#0 510518096 511030295 240191149 1069339259#1 -85257746 -651722048#2 1421756713#2 42719331 1421756712#0 85257725#2 1421572761#0 1421572761#1 -1421572763 156929608#1 1421556717 156929605#0 1459156543#1"/>
    </vehicle>
    <vehicle id="5" depart="5.00">
        <route edges="-1070598993 -34401597 -1029127199 509175881#0 509175881#1 1463807373 1463807372#0 1463807372#1 740780567#0 740780567#1 740780567#2 740780571#0 740780571#1 740780571#2 740780571#3 740780571#4 25677804#0 25677804#1 670647496 740780562#0 740780562#1 740780562#2 740780564#0 74763333 35836244#0 35836244#1 504289368 -41445635#2 4203960 -4249945#0 -332074333#2 -332074333#1 -332074334#3 -332074334#2 -332074334#1 -1070252756#2 -1070252756#1 -1070252756#0 -4204142#1 1070252758#1 4248823#0 4248823#1 4248823#2 509721267#2 509721267#3 1496793008 1496793007 4234528#1 769406157#1 4234562#1 4234562#3 -4238239#3"/>
    </vehicle>
    <vehicle id="6" depart="6.00">
        <route edges="38045461#0 38045461#1 806507182#0 806507182#1 676507118#0 676507118#1 676507118#2 676507118#3 676507118#5 676507118#6 1425107413 483337547 343406584 1421717352 1421717351#0 -1421756712#0 -42719331 -1421756713#2 651722048#2 85257746 1069339261#0 1069339261#2 1069339261#3 1069339261#4 1421997109 4237857#2 222523895 1069339262 1069339263#1 615086300 79546370#0 79546370#1 491997324#0 491997324#1 491997324#2 206702994"/>
    </vehicle>
    <vehicle id="7" depart="7.00">
        <route edges="4371058#0 -4371058#0 -4365351#10 -4365351#7 -4365351#5 4365352#0 4365346#6 4365346#7 4365346#8 4365355#1 4365355#2 85257721 240191152#0 1421756713#2 42719331 1421756712#0 1421717345 -1421717352 -343406584 -483337549#1 -483337549#0 -15086103#1 -15086103#0 -156334668 4202649#0 4202649#1 4202649#3 4202649#4"/>
    </vehicle>
    <vehicle id="8" depart="8.00">
        <route edges="-773586010#1 -773586010#0 -363152624#2 -363152624#1 -363152624#0 -1424569417 -1408911071#1 -1408911071#0 1049748087 1049748088 12145878 901998388#1 901998392 761350634 1297338947 1297338946 1188537057 1188537059#1 1282230421 979723948 1282230418 1282230420#0 1282230420#1 1282230419 -12144344#1 -12144344#0 -901998397 -1036697695#1 -1036697695#0 -12144352 -1036697694 -1036697693 -635418942 -1065476902 -1036697692#1 -1036697692#0 -45833941 1065455947 1363461637 635418948 -470450264#1 -470450264#0 -1065455948 -536539316#1 -536539316#0 -536539319 8114090 110464712#0 110464712#1 565002380#0 565002380#1 217977017 1428387955 243803410#0 243803410#1 232729187 4003087 149745414#0 -1458075397 -1059325035 -1059325037#1 -1059325037#0 -1496177472 -1496177473#1 -1496177473#0 -1059325041 -165309391 -1059325049#1 -1059325049#0 -1496177471 -165309392 -1059325054#0 -1496177463 -1496177462 -1059325056 -1059325058 -1458075412 -1496177457 -1458075411 -4003086 -536527430 -536527429 -536526736 -536523712 1193908835 1069962742 923303649 551596448 536523704 186283253 186283254#0 186283254#1 1029122220 1017492166#0 509175881#0 509175881#1 1463807373 1463807372#0 1463807372#1 740780567#0 13790340#0 13790340#1 13790340#2 13790340#3 13790340#4 13790340#5 13790340#6 13790340#7 13790340#8 13790340#9 13790340#10 13790340#11 13790340#12 13790340#13 13790340#15 13790340#16 374931991 374931990#0 374931990#1 -374931990#1 -374931990#0"/>
    </vehicle>
    <vehicle id="9" depart="9.00">
        <route edges="8392451#1 8392451#2 4365360#6 767530623 245608731 87371510#3 206702994 245607865#0 245607865#1 2481226#2 2481226#3 211341742#0 211341742#1 211341742#2 39547934 34433562#2 3997148#2 460626743 22870537#0 22870537#1 22870537#2 205143130 1284533230 67076655#0 -909518387#5 -909518387#3 -909518387#2 -909518387#1 -15087197#2 1167666837#0 1497361054 4187664#0 4187664#1 -74763338#3 -74763338#2"/>
    </vehicle>
    <vehicle id="10" depart="10.00">
        <route edges="-156929610 111496554#0 4365355#1 4365355#2 85257721 240191152#0 651722048#2 85257746 4365356#1 1421997116 -1421725170#0 -159391530#2"/>
    </vehicle>
    <vehicle id="11" depart="11.00">
        <route edges="509721265#0 509721265#1 -509721265#1 -509721265#0 4234563#1 1436746339 111429440#1 -4232980#4 -4232980#3 -4232980#2 -4232980#1 4258073#1 4258073#2 4258073#3 4258073#4 4258073#6 320718046#0 320718046#1 320718053#0 34428363#0 201621504 1128019071 -34428365#1 4376718#0 4376718#1 4376718#2 48049627#1 1265018946 262756661 155313766#0 155313766#1 1420370015#0 1420370015#1 705953061#0 705953061#1 705953061#2 705953061#3 211489814 1093694664 306191312#0 306191312#1 183479839#0 183479839#1 299395401#0 299395401#1 211489820#0 211489820#1 211489820#2 211489820#4 211489820#5 211489820#6 211561191#1 738388306#0 738388306#1 211561187#0 211560912#0 -237710703#3 -237710703#2 -237710703#1 -4370887#5 -4370887#4 -4370887#0 -475896756 3996621#1 3996621#3 1426725937 237700793#1 237694211#0 237694211#1 4253388#1 -309458023#4 -309458023#3 -309458023#2 -309458023#1 -309458023#0 -4253387 309458025 4253496#0 40446327#0 40446327#1 259277114#0 259277114#1 259277114#2 259277114#3 259277109#1 259277109#2"/>
    </vehicle>
    <vehicle id="12" depart="12.00">
        <route edges="48049630#2 451984385 48049629#0 48049629#1 -48049629#1 -48049629#0 -451984385 -48049630#2 -48049630#1 -48049630#0 147530896#0 147530896#1 198949189#0 198949189#1 1055437209 1055437211 4363443#1 4365366#0 302701452#3"/>
    </vehicle>
    <vehicle id="13" depart="13.00">
        <route edges="536535839#1 243801462 232729187 4003087 149745414#0 -1458075397 -1059325035 -1059325037#1 -1059325037#0 -1496177472 -1496177473#1 -1496177473#0 -1059325041 -165309391 -1059325049#1 -1059325049#0 -1496177471 -165309392 -1059325054#0 -1496177463 -1496177462 -1059325056 -1059325058 -1458075412 -1496177457 -1458075411 -4003086 -536527430 -536527429 -536526736 -536523712 536523707 1060394823 1060394822 -953385668 -953385669 -732424330#1 -732424330#0 -953385667 -953385670 -217977016#0 1060394280#1 1069962743 156334672#0 156334672#1 676507118#0 676507118#1 676507118#2 676507118#3 676507118#5 676507118#6 1425107413 483337547 343406584 1421717352 1421717351#0 -1421756712#0 -42719331 -1421756713#2 651722048#2 85257746 1069339261#0 1069339261#2 1069339261#3 1069339261#4 1421997109 4237857#2 222523895 1069339262 1069339263#1 615086300 79546370#0 79546370#1 491997324#0 491997324#1 491997324#2 206702994 245607865#0 245607865#1 201621350#1 931042664 1069339267 974801001#0 974801001#1 32620484#1 32620484#3 32620484#4 32620484#5 32620484#6 34428363#0 201621504 1128019071 -34428365#1 4376718#0 4376718#1 4376718#2 48049627#1 1265018946 262756661 155313766#0 155313766#1 1420370015#0 1420370015#1 705953061#0 705953061#1 705953061#2 705953061#3 211489814 1093694664 306191312#0 306191312#1 183479839#0 183479839#1 299395401#0 299395401#1 211489820#0 211489820#1 211489820#2 211489820#4 211489820#5 211489820#6 211561191#1 738388306#0 738388306#1 211561187#0 211560912#0 -237710703#3 -237710703#2 -237710703#1 237710703#1 237710703#2"/>
    </vehicle>
    <vehicle id="14" depart="14.00">
        <route edges="-42719328#2 4363441#1 4363441#3 4363441#4 -57016843"/>
    </vehicle>
    <vehicle id="15" depart="15.00">
        <route edges="-1463807372#1 38045458#0 38045458#1 38045458#2 38045458#3 155137789 -1266656239 -4202649#1 -4202649#0 156334668 15086103#0 15086103#1 483337549#0 483337549#1 343406584 1421717352 1421717351#0 85257725#2 1421572761#0 1421572761#1 -1421572763 -1421572764 -111496550#2 -111496550#1 -111496550#0 111496554#0 -4365346#8 -4365346#7 -4365346#6 -4365346#3 -4365346#0"/>
    </vehicle>
    <vehicle id="16" depart="16.00">
        <route edges="-201621350#1 4257003#0 4257003#3 215103265 211341717 1069339265 34433563#0 510518096 511030295 240191149 1069339259#1 -85257746 -651722048#2 4082753#1 4082753#2 1386961115#1 637020506 4201897#0 4201897#2 1421920848 4073741#0 4073741#1 4073741#2 41445653#0 41445653#1 41445653#2 41445653#3 4187664#10 4187664#11 4187664#12 4187664#13 4187664#14 4187664#15 4187664#16 -536465283#1 -536465283#0"/>
    </vehicle>
    <vehicle id="17" depart="17.00">
        <route edges="-979723951#1 -979723951#0 979723951#0 979723951#1 979723951#2 1282230422 1282230418 1282230420#0 1282230420#1 1282230419 -12144344#1 -12144344#0 -901998397 -1036697695#1 -1036697695#0 -12144352 -1036697694 -1036697693 -635418942 -1065476902 -1036697692#1 -1036697692#0 -45833941 1065455947 1363461637 635418948 -470450264#1 -470450264#0 -1065455948 -536539316#1 -536539316#0 -536539319 8114090 110464712#0 110464712#1 565002380#0 565002380#1 217977017 1428387955 243803410#0 243803410#1 232729187 4003087 149745414#0 -1458075397 -1059325035 -1059325037#1 -1059325037#0 -1496177472 -1496177473#1 -1496177473#0 -1059325041 -165309391 -1059325049#1 -1059325049#0 -1496177471 -165309392 -1059325054#0 -1496177463 -1496177462 -1059325056 -1059325058 -1458075412 -1496177457 -1458075411 -4003086 -536527430 -536527429 -536526736 -536523712 536523707 1060394823 1060394822 -953385668 -953385669 -732424330#1 -732424330#0 -953385667 -953385670 -217977016#0 1060394280#1 1069962743 156334672#0 156334672#1 676507118#0 676507118#1 676507118#2 676507118#3 676507118#5 676507118#6 1425107413 483337547 343406584 1421717352 1421717351#0 -1421756712#0 -42719331 -1421756713#2 651722048#2 85257746 1069339261#0 1069339261#2 1069339261#3 1069339261#4 1421997109 4237857#2 222523895 1069339262 1069339263#1 615086300 79546370#0 79546370#1 491997324#0 491997324#1 491997324#2 206702994 245607865#0 245607865#1 201621350#1 931042664 1069339267 974801001#0 974801001#1 32620484#1 32620484#3 32620484#4 32620484#5 32620484#6 34428363#0 201621504 1128019071 -34428365#1 4376718#0 4376718#1 4376718#2 48049627#1 1265018946 262756661 155313766#0 155313766#1 1420370015#0 1420370015#1 705953061#0 705953061#1 705953061#2 705953061#3 211489814 1093694664 306191312#0 306191312#1 183479839#0 183479839#1 299395401#0 299395401#1 211489820#0 211489820#1 211489820#2 211489820#4 211489820#5 211489820#6 211561191#1 738388306#0 738388306#1 211561187#0 211560912#0 -237710703#3 -237710703#2 -237710703#1 -4370887#5 -4370887#4 -4370887#0 -475896756 174326447#1 35583681#6 35583681#7 236034974#0 236034974#1 236034974#2 780665503#0 -4253439#1 -4253439#0"/>
    </vehicle>
    <vehicle id="18" depart="18.00">
        <route edges="-48049629#1 -48049629#0 -451984385 -48049630#2 -48049630#1 -48049630#0 147530896#0 147530896#1 198949189#0 198949189#1 1055437209 1055437211 1105799437 209681537 1055437205 767530622 1055437197#0 767530624#0 767530624#1 245608732#0 767530623 245608731 87371510#3 206702994 245607865#0 4256997#1 4256995#1 -4256996#1 4257003#3 215103265 211341717 1069339265 34433563#0 510518096 511030295 240191149 1069339259#1 -85257746 -651722048#2 4082753#1 4082753#2 1386961115#1 637020506 4201897#0 4201897#2 1421920848 4073741#0 4073741#1 4073741#2 41445653#0 41445653#1 41445653#2 41445653#3 28102714#0 28102714#1 28102714#2 74763338#0 74763338#1"/>
    </vehicle>
    <vehicle id="19" depart="19.00">
        <route edges="-4080091#3 4080091#3 4201897#2 1421920848 4073741#0 4073741#1 4073741#2 41445653#0 41445653#1 41445653#2 41445653#3 28102714#0 28102714#1 28102714#2 74763337 -74763339 -155137785#1 -155137785#0 -4203894#1 504284799 1266649823 1266649822 4202649#6 -740780571#4 -740780571#3 -740780571#2 -740780571#1 -740780571#0 -740780567#2 -740780567#1 -740780567#0 -1463807372#1 -1463807372#0 -1463807373 -509175881#1 -509175881#0 1029127199 34401597 1070598993 895238014 895238015 1029127198"/>
    </vehicle>
    <vehicle id="20" depart="20.00">
        <route edges="963955480#2 1424748211 963955481#0 963955481#2 1282281035 -968559042#3 -968559042#2 -968559042#1 -968559042#0 -1091373438#1 -1091373438#0 -555242863#4 -555242863#3 -555242863#2 -555242863#1 -555242863#0 -1278291935 -1278291928#1 -1278291928#0 -740729249#2 -740729249#1 963955475 949430046#0 949430046#1 1047546023 919131954#0 919131954#1 1047546019 -1408911071#1 -1408911071#0 1049748087 1049748088 12145878 901998388#1 901998392 761350634 1297338947 1297338946 1188537057 1188537059#1 1282230421 979723948 1282230418 1282230420#0 1282230420#1 1282230419 -12144344#1 -12144344#0 -901998397 -1036697695#1 -1036697695#0 -12144352 -1036697694 -1036697693 -635418942 -1065476902 -1036697692#1 -1036697692#0 -45833941 1065455947 1363461637 635418948 -470450264#1 -470450264#0 -1065455948 -536539316#1 -536539316#0 -536539319 8114090 110464712#0 110464712#1 565002380#0 565002380#1 217977017 1428387955 243803410#0 243803410#1 232729187 4003087 149745414#0 -1458075397 -1059325035 -1059325037#1 -1059325037#0 -1496177472 -1496177473#1 -1496177473#0 -1059325041 -165309391 -1059325049#1 -1059325049#0 -1496177471 -165309392 -1059325054#0 -1496177463 -1496177462 -1059325056 -1059325058 -1458075412 -1496177457 -1458075411 -4003086 -536527430 -536527429 -536526736 -536523712 536523707 1060394823 1060394822 -953385668 -953385669 -732424330#1 -732424330#0 -953385667 -953385670 -217977016#0 1060394280#1 1069962743 156334672#0 156334672#1 676507118#0 676507118#1 676507118#2 676507118#3 676507118#5 676507118#6 1425107413 483337547 343406584 1421717352 1421717351#0 -1421756712#0 -42719331 -1421756713#2 651722048#2 85257746 1069339261#0 1069339261#2 1069339261#3 1069339261#4 1421997109 4257004#0 4257019#2 1098030959 736366890 46919611#0 736366891 39547932 214368962#0 3997146 639064665 1209554545 906301973 34433563#0"/>
    </vehicle>
    <vehicle id="21" depart="21.00">
        <route edges="211561198#1 1259306983 738388309#0 -211489820#6 -211489820#5 -211489820#4 -211489820#2 -211489820#1 -211489820#0 -299395401#1 -299395401#0 -183479839#1 -183479839#0 183479838#0 183479838#1 969651295 211489815 211489817 738385148#0 738385148#1 -705953061#3 -705953061#2 -705953061#1 -705953061#0 -1420370015#1 -1420370015#0 -155313766#1 -155313766#0 -262756661 -1265018946 -48049627#1 -4376718#2 -4376718#1 -4376718#0 34428365#1 4256979 201621502#0 201621502#2 56460695#2 570050978 570050976#0 -32620484#6 -32620484#5 -32620484#4 -32620484#3 -32620484#1 -974801001#1 -974801001#0 -1069339267 -931042664 -201621350#1 4257003#0 4257003#3 215103265 211341717 1069339265 34433563#0 510518096 511030295 240191149 1069339259#1 -85257746 -651722048#2 4082753#1 4082753#2 1386961115#1 637020506 4201897#0 4201897#2 1421920848 4073741#0 4073741#1 4073741#2 41445653#0 41445653#1 41445653#2 41445653#3 4187664#10"/>
    </vehicle>
    <vehicle id="22" depart="22.00">
        <route edges="-71511205#2 71511205#2 -4562269#0 332074333#2 4249945#0 -4203960 -41445635#1 -41445635#0 41445633#1 -28102714#4 -28102714#2 -28102714#1 -28102714#0 4187664#10 4187664#11 4187664#12 4187664#13 4187664#14 4187664#15 4187664#16 4187664#17 4187664#18 4187664#19 156334668 15086103#0 15086103#1 483337549#0 483337549#1 -483337547"/>
    </vehicle>
    <vehicle id="23" depart="23.00">
        <route edges="-4253444#2 4253494#13 27846827#0 1080826236#1 1080826236#2 1080826236#3 24866118#0 24866118#2 24866118#3 -4253368#2 -4253368#1 240342338#1 240342338#2 240342338#3 240342144#0 240342144#1 309458031 240341241 91145020 1069615485 41517347 38748502 235747880#0 198949189#0 198949189#1 1055437209 1055437211 1105799437 209681537 1055437205 767530622 1055437197#0 767530624#0 767530624#1 245608732#0 -4365360#6 -4365360#5 -4365360#1 -4365360#0 4365359#4 72644784#0 72644784#4 153719896#0 -4371058#2 -4371058#1 -4371058#0 -4365351#10 4365358#6 4365358#8 758636339#0"/>
    </vehicle>
    <vehicle id="24" depart="24.00">
        <route edges="635105991 635105990#0 635105990#1 673383929#0 673383929#1 -25384469 740780564#4 740780564#5 740780565#0 -41445635#4 -41445635#3 -41445635#2 -41445635#1 -41445635#0 41698881#1 41698881#2 4562391#2 4562391#3 15087197#2 909518387#1 909518387#2 909518387#3 909518387#5 272533848#1 460626742 46919612 1167226936 362483497#0 362483497#1 362483497#2 1377439900 39547932 214368962#0 3997146 639064665 1209554545 906301973 3997145 510518097#0 510518097#1 510518097#2 79546370#0 79546370#1 491997323#0 -245608731 -767530623 -4365360#6 -4365360#5 57011231#1 845382992#0 845382992#1 857540304#0 71120391#1 71120391#2 -71120391#2 -71120391#1"/>
    </vehicle>
    <vehicle id="25" depart="25.00">
        <route edges="3997148#2 460626743 22870537#0 22870537#1 22870537#2 205143130 1284533230 22870523#0 22870523#1 22870523#2 460626742 46919612 1167226936 362483497#0 362483497#1 362483497#2 1377439900 39547932 214368962#0 3997146 639064665 1209554545 906301973 3997145 510518097#0 510518097#1 510518097#2 79546370#0 79546370#1 491997324#0 491997324#1 491997324#2 206702994 245607865#0 245607865#1 201621350#1 931042664 1069339267 974801001#0 974801001#1 32620484#1 32620484#3 32620484#4 32620484#5 32620484#6 34428363#0 201621504 1128019071 -34428365#1 -48049629#1 -48049629#0 -451984385 -48049630#2 -48049630#1 -48049630#0 147530896#0 147530896#1 198949189#0 198949189#1 1055437213"/>
    </vehicle>
    <vehicle id="26" depart="26.00">
        <route edges="72644785 1498182530 72644784#0 72644784#4 153719896#0 -4371058#2 -4371058#1 -4371058#0 -4365351#10 -4365351#7 -4365351#5 4365352#0 4365346#6 4365346#7 4365346#8 4365355#1 4365355#2 85257721 240191152#0 4082753#1 4082753#2 1386961115#1 637020506 4201897#0 4201897#2 1421920848 4073741#0 4073741#1 4073741#2 41445653#0 41445653#1 41445653#2 41445653#3 28102714#0 28102714#1 28102714#2 74763337 1266649808"/>
    </vehicle>
    <vehicle id="27" depart="27.00">
        <route edges="-47438384#1 47438381#1 237702242#1 237702242#2 237702242#3 3996621#1 3996621#3 1426725937 244896405#2 667541947 969651297 244896354 67261245 210444613 38748502 235747880#0 198949189#0 198949189#1 1055437209 1055437211 1105799437 209681537 1055437205 767530622 1055437197#0 767530624#0 767530624#1 245608732#0 -4365360#6 -4365360#5 -4365360#1 -4365360#0 4365359#4 72644784#0 72644784#4 153719896#0 153719896#1 153719896#2 27871032#1 491990207#0 491990207#1 491990207#2 491990207#3 491989456#0 491989456#1 4365358#1 -4371059#1"/>
    </vehicle>
    <vehicle id="28" depart="28.00">
        <route edges="223166902#0 1193908835 1069962742 923303649 551596448 536523704 186283253 186283254#0 186283254#1 1029122220 1017492166#0 509175881#0 509175881#1 1463807373 1463807372#0 1463807372#1 740780567#0 740780567#1 740780567#2 740780571#0 740780571#1 740780571#2 740780571#3 740780571#4 25677804#0 25677804#1 670647496 740780562#0 740780562#1 740780562#2 740780564#0 74763333 35836244#0 -465701873#2"/>
    </vehicle>
    <vehicle id="29" depart="29.00">
        <route edges="24058342#1 -12144344#1 -12144344#0 -901998397 -1036697695#1 -1036697695#0 -12144352 -1036697694 -1036697693 -635418942 -1065476902 -1036697692#1 -1036697692#0 -45833941 1065455947 1363461637 635418948 -470450264#1 -470450264#0 -1065455948 -536539316#1 -536539316#0 -536539319 8114090 110464712#0 110464712#1 565002380#0 565002380#1 217977017 1428387955 243803410#0 243803410#1 232729187 4003087 149745414#0 -1458075397 -1059325035 -1059325037#1 -1059325037#0 -1496177472 -1496177473#1 -1496177473#0 -1059325041 -165309391 -1059325049#1 -1059325049#0 -1496177471 -165309392 -1059325054#0 -1496177463 -1496177462 -1059325056 -1059325058 -1458075412 -1496177457 -1458075411 -4003086 -536527430 -536527429 -536526736 -536523712 536523707 1060394823 1060394822 -953385668 -953385669 -732424330#1 -732424330#0 -953385667 -953385670 -217977016#0 1060394280#1 1069962743 156334672#0 156334672#1 676507118#0 676507118#1 676507118#2 676507118#3 676507118#5 676507118#6 1425107413 483337547 343406584 1421717352 1421717351#0 -1421756712#0 -42719331 -1421756713#2 651722048#2 85257746 1069339261#0 1069339261#2 1069339261#3 1069339261#4 1421997109 4237857#2 222523895 1069339262 1069339263#1 615086300 79546370#0 79546370#1 491997324#0 491997324#1 491997324#2 206702994 245607865#0 245607865#1 201621350#1 931042664 1069339267 974801001#0 974801001#1 32620484#1 32620484#3 32620484#4 32620484#5 32620484#6 34428363#0 201621504 1128019071 -34428365#1 4376718#0 4376718#1 4376718#2 48049627#1 1265018946 262756661 155313766#0 155313766#1 1420370015#0 1420370015#1 705953061#0 705953061#1 705953061#2 705953061#3 211489814 1093694664 306191312#0 306191312#1 183479839#0 183479839#1 299395401#0 299395401#1 211489820#0 211489820#1 211489820#2 211489820#4 211489820#5 211489820#6 211561191#1 738388306#0 738388306#1 211561187#0 211560912#0 -237710703#3 -237710703#2 -237710703#1 -4370887#5 -4370887#4 -4370887#0 -475896756 174326447#1 35583681#6 35583681#7 236034974#0 236034974#1 236034974#2 780665503#0 -4253439#1 675079538#0"/>
    </vehicle>
    <vehicle id="30" depart="30.00">
        <route edges="1065455948 470450264#0 -470450264#0 -1065455948 -536539316#1 -536539316#0 -536539319 8114090 110464712#0 110464712#1 565002380#0 565002380#1 217977017 1428387955 243803410#0 243803410#1 232729187 4003087 149745414#0 -1458075397 -1059325035 -1059325037#1 -1059325037#0 -1496177472 -1496177473#1 -1496177473#0 -1059325041 -165309391 -1059325049#1 -1059325049#0 -1496177471 -165309392 -1059325054#0 -1496177463 -1496177462 -1059325056 -1059325058 -1458075412 -1496177457 -1458075411 -4003086 -536527430 -536527429 -536526736 -536523712 536523707 1060394823 1060394822 -953385668 -953385669 -732424330#1 -732424330#0 -953385667 -953385670 -217977016#0 1060394280#1 1069962743 156334672#0 156334672#1 676507118#0 676507118#1 676507118#2 676507118#3 676507118#5 676507118#6 1425107413 483337547 343406584 1421717352 1421717351#0 -1421756712#0 -42719331 -1421756713#2 651722048#2 85257746 1069339261#0 1069339261#2 1069339261#3 1069339261#4 1421997109 4237857#2 222523895 1069339262 1069339263#1 615086300 79546370#0 79546370#1 491997324#0 491997324#1 491997324#2 206702994 245607865#0 245607865#1 201621350#1 931042664 1069339267 974801001#0 974801001#1 4258072#1 4258072#2 4258072#3 4258072#5 4258072#6 4258072#7 4258072#8 4258072#9 4258072#10 -4258072#10"/>
    </vehicle>
    <vehicle id="31" depart="31.00">
        <route edges="979723948 1282230418 1282230420#0 1282230420#1 1282230419 -12144344#1 -12144344#0 -901998397 -1036697695#1 -1036697695#0 -12144352 -1036697694 -1036697693 -635418942 -1065476902 -1036697692#1 -1036697692#0 -45833941 1065455947 1363461637 635418948 -470450264#1 -470450264#0 -1065455948 -536539316#1 -536539316#0 -536539319 8114090 110464712#0 110464712#1 565002380#0 565002380#1 217977017 1428387955 243803410#0 243803410#1 232729187 4003087 149745414#0 -1458075397 -1059325035 -1059325037#1 -1059325037#0 -1496177472 -1496177473#1 -1496177473#0 -1059325041 -165309391 -1059325049#1 -1059325049#0 -1496177471 -165309392 -1059325054#0 -1496177463 -1496177462 -1059325056 -1059325058 -1458075412 -1496177457 -1458075411 -4003086 -536527430 -536527429 -536526736 -536523712 1193908835 1069962742 923303649 551596448 536523704 186283253 186283254#0 186283254#1 1029122220 1017492166#0 509175881#0 509175881#1 1463807373 1463807372#0 1463807372#1 740780567#0 740780567#1 740780567#2 740780571#0 740780571#1 740780571#2 740780571#3 740780571#4 25677804#0 25677804#1 670647496 740780562#0 740780562#1 740780562#2 740780564#0 74763333 -1421752037 4204155#4 -465701873#1 1167971139 41698881#1 41698881#2 4562391#2 4562391#3 15087197#2 909518386#1 909518386#2 909518386#3 909518386#4 4179899 1167663728#0 1167663728#1 1167663729 1311178503 1476176561 1476176560"/>
    </vehicle>
    <vehicle id="32" depart="32.00">
        <route edges="-237710703#2 -237710703#1 -4370887#5 -4370887#4 -4370887#0 -475896756 3996621#1 3996621#3 1426725937 244896405#2 667541947 969651297 244896354 67261245 210444613 38748502 235747880#0 198949189#0 198949189#1 1055437209 1055437211 1105799437 209681537 1055437205 767530622 1055437197#0 767530624#0 767530624#1 245608732#0 767530623 245608731 87371510#3 206702994 245607865#0 245607865#1 201621350#1 931042664 1069339267 974801001#0 974801001#1 4258072#1 4258072#2 4258072#3 4258072#5 4258072#6 4258072#7 4258072#8 4258072#9 4258072#10 320718072#0 320718072#1"/>
    </vehicle>
    <vehicle id="33" depart="33.00">
        <route edges="4365356#1 1421997116 159391521#0 159391521#1 4365358#1 4365358#2 4365358#4 4365358#6 4365358#8 758636339#0 42719328#2 42719328#3 4365331#2 4365331#3 4365332#0 4365332#1 -245608731 -767530623 -245608732#0 -767530624#1 -767530624#0 1055437202#2 1055437204 1233228309 1069615488 1055437201 -767530622 -1055437205 -209681537 -1105799437 4363443#1 1105799436#0 1105799436#1"/>
    </vehicle>
    <vehicle id="34" depart="34.00">
        <route edges="979719394 1049748087 1049748088 12145878 901998388#1 901998392 761350634 1297338947 1297338946 1188537057 1188537059#1 1282230421 979723948 1282230418 1282230420#0 1282230420#1 1282230419 -12144344#1 -12144344#0 -901998397 -1036697695#1 -1036697695#0 -12144352 -1036697694 -1036697693 -635418942 -1065476902 -1036697692#1 -1036697692#0 -45833941 1065455947 1363461637 635418948 -470450264#1 -470450264#0 -1065455948 -536539316#1 -536539316#0 -536539319 8114090 110464712#0 110464712#1 565002380#0 565002380#1 217977017 1428387955 243803410#0 243803410#1 232729187 4003087 149745414#0 -1458075397 -1059325035 -1059325037#1 -1059325037#0 -1496177472 -1496177473#1 -1496177473#0 -1059325041 -165309391 -1059325049#1 -1059325049#0 -1496177471 -165309392 -1059325054#0 -1496177463 -1496177462 -1059325056 -1059325058 -1458075412 -1496177457 -1458075411 -4003086 -536527430 -536527429 -536526736 -536523712 536523707 1060394823 1060394822 -953385668 -953385669 -732424330#1 -732424330#0 -953385667 -953385670 -217977016#0 1060394280#1 1069962743 156334672#0 156334672#1 676507118#0 676507118#1 676507118#2 676507118#3 676507118#5 676507118#6 1425107413 483337547 343406584 1421717352 1421717351#0 -1421756712#0 -42719331 -1421756713#2 651722048#2 85257746 4365356#1 1421997116 159391521#0"/>
    </vehicle>
    <vehicle id="35" depart="35.00">