<?xml version="1.0" encoding="UTF-8"?>

<!-- generated on 2026-04-11 14:43:39 by Eclipse SUMO sumo Version 1.24.0
-->

<sumoConfiguration xmlns:xsi="http://www.w3.org/2001/XMLSchema-instance" xsi:noNamespaceSchemaLocation="http://sumo.dlr.de/xsd/sumoConfiguration.xsd">

    <input>
        <net-file value="8_rh2bps.net.xml"/>
        <route-files value="8_rh2bps.rou.xml"/>
    </input>

    <time>
        <step-length value="0.1"/>
    </time>

</sumoConfiguration>
